23470
  -OEChem-05192314073D
 Structure written by MMmdl.
 44 45  0     0  0  0  0  0  0999 V2000
   37.0574    6.0201   15.5715 C   0  0  0  0  0  0  0  0  0  0  0  0
   36.6613    6.9917   16.6944 C   0  0  0  0  0  0  0  0  0  0  0  0
   36.7264    6.3206   18.0727 C   0  0  0  0  0  0  0  0  0  0  0  0
   37.5298    8.1657   16.6845 N   0  0  0  0  0  0  0  0  0  0  0  0
   38.8613    8.1465   16.8451 C   0  0  0  0  0  0  0  0  0  0  0  0
   39.5077    7.1124   17.0110 O   0  0  0  0  0  0  0  0  0  0  0  0
   39.3777    9.3863   16.7836 N   0  0  0  0  0  0  0  0  0  0  0  0
   40.7401    9.7888   16.8448 C   0  0  0  0  0  0  0  0  0  0  0  0
   41.7792    8.9724   17.3118 C   0  0  0  0  0  0  0  0  0  0  0  0
   43.0859    9.4573   17.3660 C   0  0  0  0  0  0  0  0  0  0  0  0
   43.3652   10.7569   16.9470 C   0  0  0  0  0  0  0  0  0  0  0  0
   42.3443   11.5877   16.4784 C   0  0  0  0  0  0  0  0  0  0  0  0
   42.6245   12.9340   16.0147 C   0  0  0  0  0  0  0  0  0  0  0  0
   43.6360   14.0254   16.9149 S   0  0  0  0  0  0  0  0  0  0  0  0
   43.3652   15.3253   15.7666 C   0  0  0  0  0  0  0  0  0  0  0  0
   44.0434   16.6123   16.0511 C   0  0  0  0  0  0  0  0  0  0  0  0
   44.7708   16.6963   17.0648 O   0  0  0  0  0  0  0  0  0  0  0  0
   43.8790   17.5779   15.2720 O   0  0  0  0  0  0  0  0  0  0  0  0
   42.5145   14.9212   14.7395 C   0  0  0  0  0  0  0  0  0  0  0  0
   42.0386   15.7416   13.7736 O   0  0  0  0  0  0  0  0  0  0  0  0
   40.7906   16.3656   14.0670 C   0  0  0  0  0  0  0  0  0  0  0  0
   40.3516   17.2925   12.9309 C   0  0  0  0  0  0  0  0  0  0  0  0
   41.1068   17.3767   11.9372 O   0  0  0  0  0  0  0  0  0  0  0  0
   39.2649   17.8954   13.0716 O   0  0  0  0  0  0  0  0  0  0  0  0
   42.1856   13.5746   14.8668 C   0  0  0  0  0  0  0  0  0  0  0  0
   41.1521   12.7037   13.5216 Br  0  0  0  0  0  0  0  0  0  0  0  0
   41.0347   11.0942   16.4477 C   0  0  0  0  0  0  0  0  0  0  0  0
   36.9986    6.5361   14.6018 H   0  0  0  0  0  0  0  0  0  0  0  0
   38.0862    5.6679   15.7375 H   0  0  0  0  0  0  0  0  0  0  0  0
   36.3710    5.1605   15.5715 H   0  0  0  0  0  0  0  0  0  0  0  0
   35.6235    7.3113   16.5187 H   0  0  0  0  0  0  0  0  0  0  0  0
   36.4370    7.0453   18.8480 H   0  0  0  0  0  0  0  0  0  0  0  0
   36.0369    5.4638   18.0961 H   0  0  0  0  0  0  0  0  0  0  0  0
   37.7521    5.9712   18.2622 H   0  0  0  0  0  0  0  0  0  0  0  0
   37.0966    9.0564   16.5468 H   0  0  0  0  0  0  0  0  0  0  0  0
   38.7130   10.1263   16.6808 H   0  0  0  0  0  0  0  0  0  0  0  0
   41.5671    7.9628   17.6313 H   0  0  0  0  0  0  0  0  0  0  0  0
   43.8814    8.8256   17.7327 H   0  0  0  0  0  0  0  0  0  0  0  0
   44.3798   11.1250   16.9849 H   0  0  0  0  0  0  0  0  0  0  0  0
   44.3779   18.3244   15.5825 H   0  0  0  0  0  0  0  0  0  0  0  0
   40.0261   15.5878   14.2106 H   0  0  0  0  0  0  0  0  0  0  0  0
   40.8927   16.9543   14.9906 H   0  0  0  0  0  0  0  0  0  0  0  0
   39.0978   18.4309   12.3049 H   0  0  0  0  0  0  0  0  0  0  0  0
   40.2354   11.7370   16.1096 H   0  0  0  0  0  0  0  0  0  0  0  0
  1  2  1  0  0  0  0
  2  3  1  0  0  0  0
  2  4  1  0  0  0  0
  4  5  1  0  0  0  0
  5  6  2  0  0  0  0
  5  7  1  0  0  0  0
  7  8  1  0  0  0  0
  8 27  2  0  0  0  0
  8  9  1  0  0  0  0
  9 10  2  0  0  0  0
 10 11  1  0  0  0  0
 11 12  2  0  0  0  0
 12 13  1  0  0  0  0
 12 27  1  0  0  0  0
 13 25  2  0  0  0  0
 13 14  1  0  0  0  0
 14 15  1  0  0  0  0
 15 16  1  0  0  0  0
 15 19  2  0  0  0  0
 16 17  2  0  0  0  0
 16 18  1  0  0  0  0
 19 20  1  0  0  0  0
 19 25  1  0  0  0  0
 20 21  1  0  0  0  0
 21 22  1  0  0  0  0
 22 23  2  0  0  0  0
 22 24  1  0  0  0  0
 25 26  1  0  0  0  0
  1 28  1  0  0  0  0
  1 29  1  0  0  0  0
  1 30  1  0  0  0  0
  2 31  1  0  0  0  0
  3 32  1  0  0  0  0
  3 33  1  0  0  0  0
  3 34  1  0  0  0  0
  4 35  1  0  0  0  0
  7 36  1  0  0  0  0
  9 37  1  0  0  0  0
 10 38  1  0  0  0  0
 11 39  1  0  0  0  0
 18 40  1  0  0  0  0
 21 41  1  0  0  0  0
 21 42  1  0  0  0  0
 24 43  1  0  0  0  0
 27 44  1  0  0  0  0
M  END
> <i_m_stars>
2

> <r_user_dG.exp>
-7.72301857947764

$$$$
23470
  -OEChem-05192314073D
 Structure written by MMmdl.
 44 45  0     0  0  0  0  0  0999 V2000
   37.0574    6.0201   15.5715 C   0  0  0  0  0  0  0  0  0  0  0  0
   36.6613    6.9917   16.6944 C   0  0  0  0  0  0  0  0  0  0  0  0
   36.7264    6.3206   18.0727 C   0  0  0  0  0  0  0  0  0  0  0  0
   37.5298    8.1657   16.6845 N   0  0  0  0  0  0  0  0  0  0  0  0
   38.8613    8.1465   16.8451 C   0  0  0  0  0  0  0  0  0  0  0  0
   39.5077    7.1124   17.0110 O   0  0  0  0  0  0  0  0  0  0  0  0
   39.3777    9.3863   16.7836 N   0  0  0  0  0  0  0  0  0  0  0  0
   40.7401    9.7888   16.8448 C   0  0  0  0  0  0  0  0  0  0  0  0
   41.7792    8.9724   17.3118 C   0  0  0  0  0  0  0  0  0  0  0  0
   43.0859    9.4573   17.3660 C   0  0  0  0  0  0  0  0  0  0  0  0
   43.3652   10.7569   16.9470 C   0  0  0  0  0  0  0  0  0  0  0  0
   42.3443   11.5877   16.4784 C   0  0  0  0  0  0  0  0  0  0  0  0
   42.6245   12.9340   16.0147 C   0  0  0  0  0  0  0  0  0  0  0  0
   43.6360   14.0254   16.9149 S   0  0  0  0  0  0  0  0  0  0  0  0
   43.3652   15.3253   15.7666 C   0  0  0  0  0  0  0  0  0  0  0  0
   44.0434   16.6123   16.0511 C   0  0  0  0  0  0  0  0  0  0  0  0
   44.7708   16.6963   17.0648 O   0  0  0  0  0  0  0  0  0  0  0  0
   43.8790   17.5779   15.2720 O   0  0  0  0  0  0  0  0  0  0  0  0
   42.5145   14.9212   14.7395 C   0  0  0  0  0  0  0  0  0  0  0  0
   42.0386   15.7416   13.7736 O   0  0  0  0  0  0  0  0  0  0  0  0
   40.7906   16.3656   14.0670 C   0  0  0  0  0  0  0  0  0  0  0  0
   40.3516   17.2925   12.9309 C   0  0  0  0  0  0  0  0  0  0  0  0
   41.1068   17.3767   11.9372 O   0  0  0  0  0  0  0  0  0  0  0  0
   39.2649   17.8954   13.0716 O   0  0  0  0  0  0  0  0  0  0  0  0
   42.1856   13.5746   14.8668 C   0  0  0  0  0  0  0  0  0  0  0  0
   41.1521   12.7037   13.5216 Br  0  0  0  0  0  0  0  0  0  0  0  0
   41.0347   11.0942   16.4477 C   0  0  0  0  0  0  0  0  0  0  0  0
   36.9986    6.5361   14.6018 H   0  0  0  0  0  0  0  0  0  0  0  0
   38.0862    5.6679   15.7375 H   0  0  0  0  0  0  0  0  0  0  0  0
   36.3710    5.1605   15.5715 H   0  0  0  0  0  0  0  0  0  0  0  0
   35.6235    7.3113   16.5187 H   0  0  0  0  0  0  0  0  0  0  0  0
   36.4370    7.0453   18.8480 H   0  0  0  0  0  0  0  0  0  0  0  0
   36.0369    5.4638   18.0961 H   0  0  0  0  0  0  0  0  0  0  0  0
   37.7521    5.9712   18.2622 H   0  0  0  0  0  0  0  0  0  0  0  0
   40.4289    7.3255   17.1027 H   0  0  0  0  0  0  0  0  0  0  0  0
   38.7130   10.1263   16.6808 H   0  0  0  0  0  0  0  0  0  0  0  0
   41.5671    7.9628   17.6313 H   0  0  0  0  0  0  0  0  0  0  0  0
   43.8814    8.8256   17.7327 H   0  0  0  0  0  0  0  0  0  0  0  0
   44.3798   11.1250   16.9849 H   0  0  0  0  0  0  0  0  0  0  0  0
   44.3779   18.3244   15.5825 H   0  0  0  0  0  0  0  0  0  0  0  0
   40.0261   15.5878   14.2106 H   0  0  0  0  0  0  0  0  0  0  0  0
   40.8927   16.9543   14.9906 H   0  0  0  0  0  0  0  0  0  0  0  0
   39.0978   18.4309   12.3049 H   0  0  0  0  0  0  0  0  0  0  0  0
   40.2354   11.7370   16.1096 H   0  0  0  0  0  0  0  0  0  0  0  0
  1  2  1  0  0  0  0
  2  3  1  0  0  0  0
  2  4  1  0  0  0  0
  4  5  2  0  0  0  0
  5  6  1  0  0  0  0
  5  7  1  0  0  0  0
  7  8  1  0  0  0  0
  8 27  2  0  0  0  0
  8  9  1  0  0  0  0
  9 10  2  0  0  0  0
 10 11  1  0  0  0  0
 11 12  2  0  0  0  0
 12 13  1  0  0  0  0
 12 27  1  0  0  0  0
 13 25  2  0  0  0  0
 13 14  1  0  0  0  0
 14 15  1  0  0  0  0
 15 16  1  0  0  0  0
 15 19  2  0  0  0  0
 16 17  2  0  0  0  0
 16 18  1  0  0  0  0
 19 20  1  0  0  0  0
 19 25  1  0  0  0  0
 20 21  1  0  0  0  0
 21 22  1  0  0  0  0
 22 23  2  0  0  0  0
 22 24  1  0  0  0  0
 25 26  1  0  0  0  0
  1 28  1  0  0  0  0
  1 29  1  0  0  0  0
  1 30  1  0  0  0  0
  2 31  1  0  0  0  0
  3 32  1  0  0  0  0
  3 33  1  0  0  0  0
  3 34  1  0  0  0  0
  6 35  1  0  0  0  0
  7 36  1  0  0  0  0
  9 37  1  0  0  0  0
 10 38  1  0  0  0  0
 11 39  1  0  0  0  0
 18 40  1  0  0  0  0
 21 41  1  0  0  0  0
 21 42  1  0  0  0  0
 24 43  1  0  0  0  0
 27 44  1  0  0  0  0
M  END
> <i_m_stars>
2

> <r_user_dG.exp>
-7.72301857947764

$$$$
23470
  -OEChem-05192314073D
 Structure written by MMmdl.
 44 45  0     0  0  0  0  0  0999 V2000
   37.0574    6.0201   15.5715 C   0  0  0  0  0  0  0  0  0  0  0  0
   36.6613    6.9917   16.6944 C   0  0  0  0  0  0  0  0  0  0  0  0
   36.7264    6.3206   18.0727 C   0  0  0  0  0  0  0  0  0  0  0  0
   37.5298    8.1657   16.6845 N   0  0  0  0  0  0  0  0  0  0  0  0
   38.8613    8.1465   16.8451 C   0  0  0  0  0  0  0  0  0  0  0  0
   39.5077    7.1124   17.0110 O   0  0  0  0  0  0  0  0  0  0  0  0
   39.3777    9.3863   16.7836 N   0  0  0  0  0  0  0  0  0  0  0  0
   40.7401    9.7888   16.8448 C   0  0  0  0  0  0  0  0  0  0  0  0
   41.7792    8.9724   17.3118 C   0  0  0  0  0  0  0  0  0  0  0  0
   43.0859    9.4573   17.3660 C   0  0  0  0  0  0  0  0  0  0  0  0
   43.3652   10.7569   16.9470 C   0  0  0  0  0  0  0  0  0  0  0  0
   42.3443   11.5877   16.4784 C   0  0  0  0  0  0  0  0  0  0  0  0
   42.6245   12.9340   16.0147 C   0  0  0  0  0  0  0  0  0  0  0  0
   43.6360   14.0254   16.9149 S   0  0  0  0  0  0  0  0  0  0  0  0
   43.3652   15.3253   15.7666 C   0  0  0  0  0  0  0  0  0  0  0  0
   44.0434   16.6123   16.0511 C   0  0  0  0  0  0  0  0  0  0  0  0
   44.7708   16.6963   17.0648 O   0  0  0  0  0  0  0  0  0  0  0  0
   43.8790   17.5779   15.2720 O   0  0  0  0  0  0  0  0  0  0  0  0
   42.5145   14.9212   14.7395 C   0  0  0  0  0  0  0  0  0  0  0  0
   42.0386   15.7416   13.7736 O   0  0  0  0  0  0  0  0  0  0  0  0
   40.7906   16.3656   14.0670 C   0  0  0  0  0  0  0  0  0  0  0  0
   40.3516   17.2925   12.9309 C   0  0  0  0  0  0  0  0  0  0  0  0
   41.1068   17.3767   11.9372 O   0  0  0  0  0  0  0  0  0  0  0  0
   39.2649   17.8954   13.0716 O   0  0  0  0  0  0  0  0  0  0  0  0
   42.1856   13.5746   14.8668 C   0  0  0  0  0  0  0  0  0  0  0  0
   41.1521   12.7037   13.5216 Br  0  0  0  0  0  0  0  0  0  0  0  0
   41.0347   11.0942   16.4477 C   0  0  0  0  0  0  0  0  0  0  0  0
   36.9986    6.5361   14.6018 H   0  0  0  0  0  0  0  0  0  0  0  0
   38.0862    5.6679   15.7375 H   0  0  0  0  0  0  0  0  0  0  0  0
   36.3710    5.1605   15.5715 H   0  0  0  0  0  0  0  0  0  0  0  0
   35.6235    7.3113   16.5187 H   0  0  0  0  0  0  0  0  0  0  0  0
   36.4370    7.0453   18.8480 H   0  0  0  0  0  0  0  0  0  0  0  0
   36.0369    5.4638   18.0961 H   0  0  0  0  0  0  0  0  0  0  0  0
   37.7521    5.9712   18.2622 H   0  0  0  0  0  0  0  0  0  0  0  0
   37.0966    9.0564   16.5468 H   0  0  0  0  0  0  0  0  0  0  0  0
   40.4289    7.3255   17.1027 H   0  0  0  0  0  0  0  0  0  0  0  0
   41.5671    7.9628   17.6313 H   0  0  0  0  0  0  0  0  0  0  0  0
   43.8814    8.8256   17.7327 H   0  0  0  0  0  0  0  0  0  0  0  0
   44.3798   11.1250   16.9849 H   0  0  0  0  0  0  0  0  0  0  0  0
   44.3779   18.3244   15.5825 H   0  0  0  0  0  0  0  0  0  0  0  0
   40.0261   15.5878   14.2106 H   0  0  0  0  0  0  0  0  0  0  0  0
   40.8927   16.9543   14.9906 H   0  0  0  0  0  0  0  0  0  0  0  0
   39.0978   18.4309   12.3049 H   0  0  0  0  0  0  0  0  0  0  0  0
   40.2354   11.7370   16.1096 H   0  0  0  0  0  0  0  0  0  0  0  0
  1  2  1  0  0  0  0
  2  3  1  0  0  0  0
  2  4  1  0  0  0  0
  4  5  1  0  0  0  0
  5  6  1  0  0  0  0
  5  7  2  0  0  0  0
  7  8  1  0  0  0  0
  8 27  2  0  0  0  0
  8  9  1  0  0  0  0
  9 10  2  0  0  0  0
 10 11  1  0  0  0  0
 11 12  2  0  0  0  0
 12 13  1  0  0  0  0
 12 27  1  0  0  0  0
 13 25  2  0  0  0  0
 13 14  1  0  0  0  0
 14 15  1  0  0  0  0
 15 16  1  0  0  0  0
 15 19  2  0  0  0  0
 16 17  2  0  0  0  0
 16 18  1  0  0  0  0
 19 20  1  0  0  0  0
 19 25  1  0  0  0  0
 20 21  1  0  0  0  0
 21 22  1  0  0  0  0
 22 23  2  0  0  0  0
 22 24  1  0  0  0  0
 25 26  1  0  0  0  0
  1 28  1  0  0  0  0
  1 29  1  0  0  0  0
  1 30  1  0  0  0  0
  2 31  1  0  0  0  0
  3 32  1  0  0  0  0
  3 33  1  0  0  0  0
  3 34  1  0  0  0  0
  4 35  1  0  0  0  0
  6 36  1  0  0  0  0
  9 37  1  0  0  0  0
 10 38  1  0  0  0  0
 11 39  1  0  0  0  0
 18 40  1  0  0  0  0
 21 41  1  0  0  0  0
 21 42  1  0  0  0  0
 24 43  1  0  0  0  0
 27 44  1  0  0  0  0
M  END
> <i_m_stars>
2

> <r_user_dG.exp>
-7.72301857947764

$$$$
23470
  -OEChem-05192314073D
 Structure written by MMmdl.
 44 45  0     0  0  0  0  0  0999 V2000
   37.0574    6.0201   15.5715 C   0  0  0  0  0  0  0  0  0  0  0  0
   36.6613    6.9917   16.6944 C   0  0  0  0  0  0  0  0  0  0  0  0
   36.7264    6.3206   18.0727 C   0  0  0  0  0  0  0  0  0  0  0  0
   37.5298    8.1657   16.6845 N   0  0  0  0  0  0  0  0  0  0  0  0
   38.8613    8.1465   16.8451 C   0  0  0  0  0  0  0  0  0  0  0  0
   39.5077    7.1124   17.0110 O   0  0  0  0  0  0  0  0  0  0  0  0
   39.3777    9.3863   16.7836 N   0  0  0  0  0  0  0  0  0  0  0  0
   40.7401    9.7888   16.8448 C   0  0  0  0  0  0  0  0  0  0  0  0
   41.7792    8.9724   17.3118 C   0  0  0  0  0  0  0  0  0  0  0  0
   43.0859    9.4573   17.3660 C   0  0  0  0  0  0  0  0  0  0  0  0
   43.3652   10.7569   16.9470 C   0  0  0  0  0  0  0  0  0  0  0  0
   42.3443   11.5877   16.4784 C   0  0  0  0  0  0  0  0  0  0  0  0
   42.6245   12.9340   16.0147 C   0  0  0  0  0  0  0  0  0  0  0  0
   43.6360   14.0254   16.9149 S   0  0  0  0  0  0  0  0  0  0  0  0
   43.3652   15.3253   15.7666 C   0  0  0  0  0  0  0  0  0  0  0  0
   44.0434   16.6123   16.0511 C   0  0  0  0  0  0  0  0  0  0  0  0
   44.7708   16.6963   17.0648 O   0  0  0  0  0  0  0  0  0  0  0  0
   43.8790   17.5779   15.2720 O   0  0  0  0  0  0  0  0  0  0  0  0
   42.5145   14.9212   14.7395 C   0  0  0  0  0  0  0  0  0  0  0  0
   42.0386   15.7416   13.7736 O   0  0  0  0  0  0  0  0  0  0  0  0
   40.7906   16.3656   14.0670 C   0  0  0  0  0  0  0  0  0  0  0  0
   40.3516   17.2925   12.9309 C   0  0  0  0  0  0  0  0  0  0  0  0
   41.1068   17.3767   11.9372 O   0  0  0  0  0  0  0  0  0  0  0  0
   39.2649   17.8954   13.0716 O   0  0  0  0  0  0  0  0  0  0  0  0
   42.1856   13.5746   14.8668 C   0  0  0  0  0  0  0  0  0  0  0  0
   41.1521   12.7037   13.5216 Br  0  0  0  0  0  0  0  0  0  0  0  0
   41.0347   11.0942   16.4477 C   0  0  0  0  0  0  0  0  0  0  0  0
   36.9986    6.5361   14.6018 H   0  0  0  0  0  0  0  0  0  0  0  0
   38.0862    5.6679   15.7375 H   0  0  0  0  0  0  0  0  0  0  0  0
   36.3710    5.1605   15.5715 H   0  0  0  0  0  0  0  0  0  0  0  0
   35.6235    7.3113   16.5187 H   0  0  0  0  0  0  0  0  0  0  0  0
   36.4370    7.0453   18.8480 H   0  0  0  0  0  0  0  0  0  0  0  0
   36.0369    5.4638   18.0961 H   0  0  0  0  0  0  0  0  0  0  0  0
   37.7521    5.9712   18.2622 H   0  0  0  0  0  0  0  0  0  0  0  0
   37.0966    9.0564   16.5468 H   0  0  0  0  0  0  0  0  0  0  0  0
   41.5104    8.6735   18.3357 H   0  0  0  0  0  0  0  0  0  0  0  0
   41.7986    8.0839   16.6636 H   0  0  0  0  0  0  0  0  0  0  0  0
   43.8814    8.8256   17.7327 H   0  0  0  0  0  0  0  0  0  0  0  0
   44.3798   11.1250   16.9849 H   0  0  0  0  0  0  0  0  0  0  0  0
   44.3779   18.3244   15.5825 H   0  0  0  0  0  0  0  0  0  0  0  0
   40.0261   15.5878   14.2106 H   0  0  0  0  0  0  0  0  0  0  0  0
   40.8927   16.9543   14.9906 H   0  0  0  0  0  0  0  0  0  0  0  0
   39.0978   18.4309   12.3049 H   0  0  0  0  0  0  0  0  0  0  0  0
   40.2354   11.7370   16.1096 H   0  0  0  0  0  0  0  0  0  0  0  0
  1  2  1  0  0  0  0
  2  3  1  0  0  0  0
  2  4  1  0  0  0  0
  4  5  1  0  0  0  0
  5  6  2  0  0  0  0
  5  7  1  0  0  0  0
  7  8  2  0  0  0  0
  8 27  1  0  0  0  0
  8  9  1  0  0  0  0
  9 10  1  0  0  0  0
 10 11  2  0  0  0  0
 11 12  1  0  0  0  0
 12 13  1  0  0  0  0
 12 27  2  0  0  0  0
 13 25  2  0  0  0  0
 13 14  1  0  0  0  0
 14 15  1  0  0  0  0
 15 16  1  0  0  0  0
 15 19  2  0  0  0  0
 16 17  2  0  0  0  0
 16 18  1  0  0  0  0
 19 20  1  0  0  0  0
 19 25  1  0  0  0  0
 20 21  1  0  0  0  0
 21 22  1  0  0  0  0
 22 23  2  0  0  0  0
 22 24  1  0  0  0  0
 25 26  1  0  0  0  0
  1 28  1  0  0  0  0
  1 29  1  0  0  0  0
  1 30  1  0  0  0  0
  2 31  1  0  0  0  0
  3 32  1  0  0  0  0
  3 33  1  0  0  0  0
  3 34  1  0  0  0  0
  4 35  1  0  0  0  0
  9 36  1  0  0  0  0
  9 37  1  0  0  0  0
 10 38  1  0  0  0  0
 11 39  1  0  0  0  0
 18 40  1  0  0  0  0
 21 41  1  0  0  0  0
 21 42  1  0  0  0  0
 24 43  1  0  0  0  0
 27 44  1  0  0  0  0
M  END
> <i_m_stars>
2

> <r_user_dG.exp>
-7.72301857947764

$$$$
23470
  -OEChem-05192314073D
 Structure written by MMmdl.
 44 45  0     0  0  0  0  0  0999 V2000
   37.0574    6.0201   15.5715 C   0  0  0  0  0  0  0  0  0  0  0  0
   36.6613    6.9917   16.6944 C   0  0  0  0  0  0  0  0  0  0  0  0
   36.7264    6.3206   18.0727 C   0  0  0  0  0  0  0  0  0  0  0  0
   37.5298    8.1657   16.6845 N   0  0  0  0  0  0  0  0  0  0  0  0
   38.8613    8.1465   16.8451 C   0  0  0  0  0  0  0  0  0  0  0  0
   39.5077    7.1124   17.0110 O   0  0  0  0  0  0  0  0  0  0  0  0
   39.3777    9.3863   16.7836 N   0  0  0  0  0  0  0  0  0  0  0  0
   40.7401    9.7888   16.8448 C   0  0  0  0  0  0  0  0  0  0  0  0
   41.7792    8.9724   17.3118 C   0  0  0  0  0  0  0  0  0  0  0  0
   43.0859    9.4573   17.3660 C   0  0  0  0  0  0  0  0  0  0  0  0
   43.3652   10.7569   16.9470 C   0  0  0  0  0  0  0  0  0  0  0  0
   42.3443   11.5877   16.4784 C   0  0  0  0  0  0  0  0  0  0  0  0
   42.6245   12.9340   16.0147 C   0  0  0  0  0  0  0  0  0  0  0  0
   43.6360   14.0254   16.9149 S   0  0  0  0  0  0  0  0  0  0  0  0
   43.3652   15.3253   15.7666 C   0  0  0  0  0  0  0  0  0  0  0  0
   44.0434   16.6123   16.0511 C   0  0  0  0  0  0  0  0  0  0  0  0
   44.7708   16.6963   17.0648 O   0  0  0  0  0  0  0  0  0  0  0  0
   43.8790   17.5779   15.2720 O   0  0  0  0  0  0  0  0  0  0  0  0
   42.5145   14.9212   14.7395 C   0  0  0  0  0  0  0  0  0  0  0  0
   42.0386   15.7416   13.7736 O   0  0  0  0  0  0  0  0  0  0  0  0
   40.7906   16.3656   14.0670 C   0  0  0  0  0  0  0  0  0  0  0  0
   40.3516   17.2925   12.9309 C   0  0  0  0  0  0  0  0  0  0  0  0
   41.1068   17.3767   11.9372 O   0  0  0  0  0  0  0  0  0  0  0  0
   39.2649   17.8954   13.0716 O   0  0  0  0  0  0  0  0  0  0  0  0
   42.1856   13.5746   14.8668 C   0  0  0  0  0  0  0  0  0  0  0  0
   41.1521   12.7037   13.5216 Br  0  0  0  0  0  0  0  0  0  0  0  0
   41.0347   11.0942   16.4477 C   0  0  0  0  0  0  0  0  0  0  0  0
   36.9986    6.5361   14.6018 H   0  0  0  0  0  0  0  0  0  0  0  0
   38.0862    5.6679   15.7375 H   0  0  0  0  0  0  0  0  0  0  0  0
   36.3710    5.1605   15.5715 H   0  0  0  0  0  0  0  0  0  0  0  0
   35.6235    7.3113   16.5187 H   0  0  0  0  0  0  0  0  0  0  0  0
   36.4370    7.0453   18.8480 H   0  0  0  0  0  0  0  0  0  0  0  0
   36.0369    5.4638   18.0961 H   0  0  0  0  0  0  0  0  0  0  0  0
   37.7521    5.9712   18.2622 H   0  0  0  0  0  0  0  0  0  0  0  0
   37.0966    9.0564   16.5468 H   0  0  0  0  0  0  0  0  0  0  0  0
   41.5671    7.9628   17.6313 H   0  0  0  0  0  0  0  0  0  0  0  0
   43.8814    8.8256   17.7327 H   0  0  0  0  0  0  0  0  0  0  0  0
   43.8221   11.2727   17.8045 H   0  0  0  0  0  0  0  0  0  0  0  0
   44.1016   10.6741   16.1341 H   0  0  0  0  0  0  0  0  0  0  0  0
   44.3779   18.3244   15.5825 H   0  0  0  0  0  0  0  0  0  0  0  0
   40.0261   15.5878   14.2106 H   0  0  0  0  0  0  0  0  0  0  0  0
   40.8927   16.9543   14.9906 H   0  0  0  0  0  0  0  0  0  0  0  0
   39.0978   18.4309   12.3049 H   0  0  0  0  0  0  0  0  0  0  0  0
   40.2354   11.7370   16.1096 H   0  0  0  0  0  0  0  0  0  0  0  0
  1  2  1  0  0  0  0
  2  3  1  0  0  0  0
  2  4  1  0  0  0  0
  4  5  1  0  0  0  0
  5  6  2  0  0  0  0
  5  7  1  0  0  0  0
  7  8  2  0  0  0  0
  8 27  1  0  0  0  0
  8  9  1  0  0  0  0
  9 10  2  0  0  0  0
 10 11  1  0  0  0  0
 11 12  1  0  0  0  0
 12 13  1  0  0  0  0
 12 27  2  0  0  0  0
 13 25  2  0  0  0  0
 13 14  1  0  0  0  0
 14 15  1  0  0  0  0
 15 16  1  0  0  0  0
 15 19  2  0  0  0  0
 16 17  2  0  0  0  0
 16 18  1  0  0  0  0
 19 20  1  0  0  0  0
 19 25  1  0  0  0  0
 20 21  1  0  0  0  0
 21 22  1  0  0  0  0
 22 23  2  0  0  0  0
 22 24  1  0  0  0  0
 25 26  1  0  0  0  0
  1 28  1  0  0  0  0
  1 29  1  0  0  0  0
  1 30  1  0  0  0  0
  2 31  1  0  0  0  0
  3 32  1  0  0  0  0
  3 33  1  0  0  0  0
  3 34  1  0  0  0  0
  4 35  1  0  0  0  0
  9 36  1  0  0  0  0
 10 37  1  0  0  0  0
 11 38  1  0  0  0  0
 11 39  1  0  0  0  0
 18 40  1  0  0  0  0
 21 41  1  0  0  0  0
 21 42  1  0  0  0  0
 24 43  1  0  0  0  0
 27 44  1  0  0  0  0
M  END
> <i_m_stars>
2

> <r_user_dG.exp>
-7.72301857947764

$$$$
23470
  -OEChem-05192314073D
 Structure written by MMmdl.
 44 45  0     0  0  0  0  0  0999 V2000
   37.0574    6.0201   15.5715 C   0  0  0  0  0  0  0  0  0  0  0  0
   36.6613    6.9917   16.6944 C   0  0  0  0  0  0  0  0  0  0  0  0
   36.7264    6.3206   18.0727 C   0  0  0  0  0  0  0  0  0  0  0  0
   37.5298    8.1657   16.6845 N   0  0  0  0  0  0  0  0  0  0  0  0
   38.8613    8.1465   16.8451 C   0  0  0  0  0  0  0  0  0  0  0  0
   39.5077    7.1124   17.0110 O   0  0  0  0  0  0  0  0  0  0  0  0
   39.3777    9.3863   16.7836 N   0  0  0  0  0  0  0  0  0  0  0  0
   40.7401    9.7888   16.8448 C   0  0  0  0  0  0  0  0  0  0  0  0
   41.7792    8.9724   17.3118 C   0  0  0  0  0  0  0  0  0  0  0  0
   43.0859    9.4573   17.3660 C   0  0  0  0  0  0  0  0  0  0  0  0
   43.3652   10.7569   16.9470 C   0  0  0  0  0  0  0  0  0  0  0  0
   42.3443   11.5877   16.4784 C   0  0  0  0  0  0  0  0  0  0  0  0
   42.6245   12.9340   16.0147 C   0  0  0  0  0  0  0  0  0  0  0  0
   43.6360   14.0254   16.9149 S   0  0  0  0  0  0  0  0  0  0  0  0
   43.3652   15.3253   15.7666 C   0  0  0  0  0  0  0  0  0  0  0  0
   44.0434   16.6123   16.0511 C   0  0  0  0  0  0  0  0  0  0  0  0
   44.7708   16.6963   17.0648 O   0  0  0  0  0  0  0  0  0  0  0  0
   43.8790   17.5779   15.2720 O   0  0  0  0  0  0  0  0  0  0  0  0
   42.5145   14.9212   14.7395 C   0  0  0  0  0  0  0  0  0  0  0  0
   42.0386   15.7416   13.7736 O   0  0  0  0  0  0  0  0  0  0  0  0
   40.7906   16.3656   14.0670 C   0  0  0  0  0  0  0  0  0  0  0  0
   40.3516   17.2925   12.9309 C   0  0  0  0  0  0  0  0  0  0  0  0
   41.1068   17.3767   11.9372 O   0  0  0  0  0  0  0  0  0  0  0  0
   39.2649   17.8954   13.0716 O   0  0  0  0  0  0  0  0  0  0  0  0
   42.1856   13.5746   14.8668 C   0  0  0  0  0  0  0  0  0  0  0  0
   41.1521   12.7037   13.5216 Br  0  0  0  0  0  0  0  0  0  0  0  0
   41.0347   11.0942   16.4477 C   0  0  0  0  0  0  0  0  0  0  0  0
   36.9986    6.5361   14.6018 H   0  0  0  0  0  0  0  0  0  0  0  0
   38.0862    5.6679   15.7375 H   0  0  0  0  0  0  0  0  0  0  0  0
   36.3710    5.1605   15.5715 H   0  0  0  0  0  0  0  0  0  0  0  0
   35.6235    7.3113   16.5187 H   0  0  0  0  0  0  0  0  0  0  0  0
   36.4370    7.0453   18.8480 H   0  0  0  0  0  0  0  0  0  0  0  0
   36.0369    5.4638   18.0961 H   0  0  0  0  0  0  0  0  0  0  0  0
   37.7521    5.9712   18.2622 H   0  0  0  0  0  0  0  0  0  0  0  0
   37.0966    9.0564   16.5468 H   0  0  0  0  0  0  0  0  0  0  0  0
   41.5671    7.9628   17.6313 H   0  0  0  0  0  0  0  0  0  0  0  0
   43.8814    8.8256   17.7327 H   0  0  0  0  0  0  0  0  0  0  0  0
   44.3798   11.1250   16.9849 H   0  0  0  0  0  0  0  0  0  0  0  0
   44.3779   18.3244   15.5825 H   0  0  0  0  0  0  0  0  0  0  0  0
   40.0261   15.5878   14.2106 H   0  0  0  0  0  0  0  0  0  0  0  0
   40.8927   16.9543   14.9906 H   0  0  0  0  0  0  0  0  0  0  0  0
   39.0978   18.4309   12.3049 H   0  0  0  0  0  0  0  0  0  0  0  0
   40.6918   11.1873   15.4067 H   0  0  0  0  0  0  0  0  0  0  0  0
   40.4376   11.7571   17.0911 H   0  0  0  0  0  0  0  0  0  0  0  0
  1  2  1  0  0  0  0
  2  3  1  0  0  0  0
  2  4  1  0  0  0  0
  4  5  1  0  0  0  0
  5  6  2  0  0  0  0
  5  7  1  0  0  0  0
  7  8  2  0  0  0  0
  8 27  1  0  0  0  0
  8  9  1  0  0  0  0
  9 10  2  0  0  0  0
 10 11  1  0  0  0  0
 11 12  2  0  0  0  0
 12 13  1  0  0  0  0
 12 27  1  0  0  0  0
 13 25  2  0  0  0  0
 13 14  1  0  0  0  0
 14 15  1  0  0  0  0
 15 16  1  0  0  0  0
 15 19  2  0  0  0  0
 16 17  2  0  0  0  0
 16 18  1  0  0  0  0
 19 20  1  0  0  0  0
 19 25  1  0  0  0  0
 20 21  1  0  0  0  0
 21 22  1  0  0  0  0
 22 23  2  0  0  0  0
 22 24  1  0  0  0  0
 25 26  1  0  0  0  0
  1 28  1  0  0  0  0
  1 29  1  0  0  0  0
  1 30  1  0  0  0  0
  2 31  1  0  0  0  0
  3 32  1  0  0  0  0
  3 33  1  0  0  0  0
  3 34  1  0  0  0  0
  4 35  1  0  0  0  0
  9 36  1  0  0  0  0
 10 37  1  0  0  0  0
 11 38  1  0  0  0  0
 18 39  1  0  0  0  0
 21 40  1  0  0  0  0
 21 41  1  0  0  0  0
 24 42  1  0  0  0  0
 27 43  1  0  0  0  0
 27 44  1  0  0  0  0
M  END
> <i_m_stars>
2

> <r_user_dG.exp>
-7.72301857947764

$$$$
23470
  -OEChem-05192314073D
 Structure written by MMmdl.
 44 45  0     0  0  0  0  0  0999 V2000
   37.0574    6.0201   15.5715 C   0  0  0  0  0  0  0  0  0  0  0  0
   36.6613    6.9917   16.6944 C   0  0  0  0  0  0  0  0  0  0  0  0
   36.7264    6.3206   18.0727 C   0  0  0  0  0  0  0  0  0  0  0  0
   37.5298    8.1657   16.6845 N   0  0  0  0  0  0  0  0  0  0  0  0
   38.8613    8.1465   16.8451 C   0  0  0  0  0  0  0  0  0  0  0  0
   39.5077    7.1124   17.0110 O   0  0  0  0  0  0  0  0  0  0  0  0
   39.3777    9.3863   16.7836 N   0  0  0  0  0  0  0  0  0  0  0  0
   40.7401    9.7888   16.8448 C   0  0  0  0  0  0  0  0  0  0  0  0
   41.7792    8.9724   17.3118 C   0  0  0  0  0  0  0  0  0  0  0  0
   43.0859    9.4573   17.3660 C   0  0  0  0  0  0  0  0  0  0  0  0
   43.3652   10.7569   16.9470 C   0  0  0  0  0  0  0  0  0  0  0  0
   42.3443   11.5877   16.4784 C   0  0  0  0  0  0  0  0  0  0  0  0
   42.6245   12.9340   16.0147 C   0  0  0  0  0  0  0  0  0  0  0  0
   43.6360   14.0254   16.9149 S   0  0  0  0  0  0  0  0  0  0  0  0
   43.3652   15.3253   15.7666 C   0  0  0  0  0  0  0  0  0  0  0  0
   44.0434   16.6123   16.0511 C   0  0  0  0  0  0  0  0  0  0  0  0
   44.7708   16.6963   17.0648 O   0  0  0  0  0  0  0  0  0  0  0  0
   43.8790   17.5779   15.2720 O   0  0  0  0  0  0  0  0  0  0  0  0
   42.5145   14.9212   14.7395 C   0  0  0  0  0  0  0  0  0  0  0  0
   42.0386   15.7416   13.7736 O   0  0  0  0  0  0  0  0  0  0  0  0
   40.7906   16.3656   14.0670 C   0  0  0  0  0  0  0  0  0  0  0  0
   40.3516   17.2925   12.9309 C   0  0  0  0  0  0  0  0  0  0  0  0
   41.1068   17.3767   11.9372 O   0  0  0  0  0  0  0  0  0  0  0  0
   39.2649   17.8954   13.0716 O   0  0  0  0  0  0  0  0  0  0  0  0
   42.1856   13.5746   14.8668 C   0  0  0  0  0  0  0  0  0  0  0  0
   41.1521   12.7037   13.5216 Br  0  0  0  0  0  0  0  0  0  0  0  0
   41.0347   11.0942   16.4477 C   0  0  0  0  0  0  0  0  0  0  0  0
   36.9986    6.5361   14.6018 H   0  0  0  0  0  0  0  0  0  0  0  0
   38.0862    5.6679   15.7375 H   0  0  0  0  0  0  0  0  0  0  0  0
   36.3710    5.1605   15.5715 H   0  0  0  0  0  0  0  0  0  0  0  0
   35.6235    7.3113   16.5187 H   0  0  0  0  0  0  0  0  0  0  0  0
   36.4370    7.0453   18.8480 H   0  0  0  0  0  0  0  0  0  0  0  0
   36.0369    5.4638   18.0961 H   0  0  0  0  0  0  0  0  0  0  0  0
   37.7521    5.9712   18.2622 H   0  0  0  0  0  0  0  0  0  0  0  0
   40.4289    7.3255   17.1027 H   0  0  0  0  0  0  0  0  0  0  0  0
   41.5104    8.6735   18.3357 H   0  0  0  0  0  0  0  0  0  0  0  0
   41.7986    8.0839   16.6636 H   0  0  0  0  0  0  0  0  0  0  0  0
   43.8814    8.8256   17.7327 H   0  0  0  0  0  0  0  0  0  0  0  0
   44.3798   11.1250   16.9849 H   0  0  0  0  0  0  0  0  0  0  0  0
   44.3779   18.3244   15.5825 H   0  0  0  0  0  0  0  0  0  0  0  0
   40.0261   15.5878   14.2106 H   0  0  0  0  0  0  0  0  0  0  0  0
   40.8927   16.9543   14.9906 H   0  0  0  0  0  0  0  0  0  0  0  0
   39.0978   18.4309   12.3049 H   0  0  0  0  0  0  0  0  0  0  0  0
   40.2354   11.7370   16.1096 H   0  0  0  0  0  0  0  0  0  0  0  0
  1  2  1  0  0  0  0
  2  3  1  0  0  0  0
  2  4  1  0  0  0  0
  4  5  2  0  0  0  0
  5  6  1  0  0  0  0
  5  7  1  0  0  0  0
  7  8  2  0  0  0  0
  8 27  1  0  0  0  0
  8  9  1  0  0  0  0
  9 10  1  0  0  0  0
 10 11  2  0  0  0  0
 11 12  1  0  0  0  0
 12 13  1  0  0  0  0
 12 27  2  0  0  0  0
 13 25  2  0  0  0  0
 13 14  1  0  0  0  0
 14 15  1  0  0  0  0
 15 16  1  0  0  0  0
 15 19  2  0  0  0  0
 16 17  2  0  0  0  0
 16 18  1  0  0  0  0
 19 20  1  0  0  0  0
 19 25  1  0  0  0  0
 20 21  1  0  0  0  0
 21 22  1  0  0  0  0
 22 23  2  0  0  0  0
 22 24  1  0  0  0  0
 25 26  1  0  0  0  0
  1 28  1  0  0  0  0
  1 29  1  0  0  0  0
  1 30  1  0  0  0  0
  2 31  1  0  0  0  0
  3 32  1  0  0  0  0
  3 33  1  0  0  0  0
  3 34  1  0  0  0  0
  6 35  1  0  0  0  0
  9 36  1  0  0  0  0
  9 37  1  0  0  0  0
 10 38  1  0  0  0  0
 11 39  1  0  0  0  0
 18 40  1  0  0  0  0
 21 41  1  0  0  0  0
 21 42  1  0  0  0  0
 24 43  1  0  0  0  0
 27 44  1  0  0  0  0
M  END
> <i_m_stars>
2

> <r_user_dG.exp>
-7.72301857947764

$$$$
23470
  -OEChem-05192314073D
 Structure written by MMmdl.
 44 45  0     0  0  0  0  0  0999 V2000
   37.0574    6.0201   15.5715 C   0  0  0  0  0  0  0  0  0  0  0  0
   36.6613    6.9917   16.6944 C   0  0  0  0  0  0  0  0  0  0  0  0
   36.7264    6.3206   18.0727 C   0  0  0  0  0  0  0  0  0  0  0  0
   37.5298    8.1657   16.6845 N   0  0  0  0  0  0  0  0  0  0  0  0
   38.8613    8.1465   16.8451 C   0  0  0  0  0  0  0  0  0  0  0  0
   39.5077    7.1124   17.0110 O   0  0  0  0  0  0  0  0  0  0  0  0
   39.3777    9.3863   16.7836 N   0  0  0  0  0  0  0  0  0  0  0  0
   40.7401    9.7888   16.8448 C   0  0  0  0  0  0  0  0  0  0  0  0
   41.7792    8.9724   17.3118 C   0  0  0  0  0  0  0  0  0  0  0  0
   43.0859    9.4573   17.3660 C   0  0  0  0  0  0  0  0  0  0  0  0
   43.3652   10.7569   16.9470 C   0  0  0  0  0  0  0  0  0  0  0  0
   42.3443   11.5877   16.4784 C   0  0  0  0  0  0  0  0  0  0  0  0
   42.6245   12.9340   16.0147 C   0  0  0  0  0  0  0  0  0  0  0  0
   43.6360   14.0254   16.9149 S   0  0  0  0  0  0  0  0  0  0  0  0
   43.3652   15.3253   15.7666 C   0  0  0  0  0  0  0  0  0  0  0  0
   44.0434   16.6123   16.0511 C   0  0  0  0  0  0  0  0  0  0  0  0
   44.7708   16.6963   17.0648 O   0  0  0  0  0  0  0  0  0  0  0  0
   43.8790   17.5779   15.2720 O   0  0  0  0  0  0  0  0  0  0  0  0
   42.5145   14.9212   14.7395 C   0  0  0  0  0  0  0  0  0  0  0  0
   42.0386   15.7416   13.7736 O   0  0  0  0  0  0  0  0  0  0  0  0
   40.7906   16.3656   14.0670 C   0  0  0  0  0  0  0  0  0  0  0  0
   40.3516   17.2925   12.9309 C   0  0  0  0  0  0  0  0  0  0  0  0
   41.1068   17.3767   11.9372 O   0  0  0  0  0  0  0  0  0  0  0  0
   39.2649   17.8954   13.0716 O   0  0  0  0  0  0  0  0  0  0  0  0
   42.1856   13.5746   14.8668 C   0  0  0  0  0  0  0  0  0  0  0  0
   41.1521   12.7037   13.5216 Br  0  0  0  0  0  0  0  0  0  0  0  0
   41.0347   11.0942   16.4477 C   0  0  0  0  0  0  0  0  0  0  0  0
   36.9986    6.5361   14.6018 H   0  0  0  0  0  0  0  0  0  0  0  0
   38.0862    5.6679   15.7375 H   0  0  0  0  0  0  0  0  0  0  0  0
   36.3710    5.1605   15.5715 H   0  0  0  0  0  0  0  0  0  0  0  0
   35.6235    7.3113   16.5187 H   0  0  0  0  0  0  0  0  0  0  0  0
   36.4370    7.0453   18.8480 H   0  0  0  0  0  0  0  0  0  0  0  0
   36.0369    5.4638   18.0961 H   0  0  0  0  0  0  0  0  0  0  0  0
   37.7521    5.9712   18.2622 H   0  0  0  0  0  0  0  0  0  0  0  0
   40.4289    7.3255   17.1027 H   0  0  0  0  0  0  0  0  0  0  0  0
   41.5671    7.9628   17.6313 H   0  0  0  0  0  0  0  0  0  0  0  0
   43.8814    8.8256   17.7327 H   0  0  0  0  0  0  0  0  0  0  0  0
   43.8221   11.2727   17.8045 H   0  0  0  0  0  0  0  0  0  0  0  0
   44.1016   10.6741   16.1341 H   0  0  0  0  0  0  0  0  0  0  0  0
   44.3779   18.3244   15.5825 H   0  0  0  0  0  0  0  0  0  0  0  0
   40.0261   15.5878   14.2106 H   0  0  0  0  0  0  0  0  0  0  0  0
   40.8927   16.9543   14.9906 H   0  0  0  0  0  0  0  0  0  0  0  0
   39.0978   18.4309   12.3049 H   0  0  0  0  0  0  0  0  0  0  0  0
   40.2354   11.7370   16.1096 H   0  0  0  0  0  0  0  0  0  0  0  0
  1  2  1  0  0  0  0
  2  3  1  0  0  0  0
  2  4  1  0  0  0  0
  4  5  2  0  0  0  0
  5  6  1  0  0  0  0
  5  7  1  0  0  0  0
  7  8  2  0  0  0  0
  8 27  1  0  0  0  0
  8  9  1  0  0  0  0
  9 10  2  0  0  0  0
 10 11  1  0  0  0  0
 11 12  1  0  0  0  0
 12 13  1  0  0  0  0
 12 27  2  0  0  0  0
 13 25  2  0  0  0  0
 13 14  1  0  0  0  0
 14 15  1  0  0  0  0
 15 16  1  0  0  0  0
 15 19  2  0  0  0  0
 16 17  2  0  0  0  0
 16 18  1  0  0  0  0
 19 20  1  0  0  0  0
 19 25  1  0  0  0  0
 20 21  1  0  0  0  0
 21 22  1  0  0  0  0
 22 23  2  0  0  0  0
 22 24  1  0  0  0  0
 25 26  1  0  0  0  0
  1 28  1  0  0  0  0
  1 29  1  0  0  0  0
  1 30  1  0  0  0  0
  2 31  1  0  0  0  0
  3 32  1  0  0  0  0
  3 33  1  0  0  0  0
  3 34  1  0  0  0  0
  6 35  1  0  0  0  0
  9 36  1  0  0  0  0
 10 37  1  0  0  0  0
 11 38  1  0  0  0  0
 11 39  1  0  0  0  0
 18 40  1  0  0  0  0
 21 41  1  0  0  0  0
 21 42  1  0  0  0  0
 24 43  1  0  0  0  0
 27 44  1  0  0  0  0
M  END
> <i_m_stars>
2

> <r_user_dG.exp>
-7.72301857947764

$$$$
23470
  -OEChem-05192314073D
 Structure written by MMmdl.
 44 45  0     0  0  0  0  0  0999 V2000
   37.0574    6.0201   15.5715 C   0  0  0  0  0  0  0  0  0  0  0  0
   36.6613    6.9917   16.6944 C   0  0  0  0  0  0  0  0  0  0  0  0
   36.7264    6.3206   18.0727 C   0  0  0  0  0  0  0  0  0  0  0  0
   37.5298    8.1657   16.6845 N   0  0  0  0  0  0  0  0  0  0  0  0
   38.8613    8.1465   16.8451 C   0  0  0  0  0  0  0  0  0  0  0  0
   39.5077    7.1124   17.0110 O   0  0  0  0  0  0  0  0  0  0  0  0
   39.3777    9.3863   16.7836 N   0  0  0  0  0  0  0  0  0  0  0  0
   40.7401    9.7888   16.8448 C   0  0  0  0  0  0  0  0  0  0  0  0
   41.7792    8.9724   17.3118 C   0  0  0  0  0  0  0  0  0  0  0  0
   43.0859    9.4573   17.3660 C   0  0  0  0  0  0  0  0  0  0  0  0
   43.3652   10.7569   16.9470 C   0  0  0  0  0  0  0  0  0  0  0  0
   42.3443   11.5877   16.4784 C   0  0  0  0  0  0  0  0  0  0  0  0
   42.6245   12.9340   16.0147 C   0  0  0  0  0  0  0  0  0  0  0  0
   43.6360   14.0254   16.9149 S   0  0  0  0  0  0  0  0  0  0  0  0
   43.3652   15.3253   15.7666 C   0  0  0  0  0  0  0  0  0  0  0  0
   44.0434   16.6123   16.0511 C   0  0  0  0  0  0  0  0  0  0  0  0
   44.7708   16.6963   17.0648 O   0  0  0  0  0  0  0  0  0  0  0  0
   43.8790   17.5779   15.2720 O   0  0  0  0  0  0  0  0  0  0  0  0
   42.5145   14.9212   14.7395 C   0  0  0  0  0  0  0  0  0  0  0  0
   42.0386   15.7416   13.7736 O   0  0  0  0  0  0  0  0  0  0  0  0
   40.7906   16.3656   14.0670 C   0  0  0  0  0  0  0  0  0  0  0  0
   40.3516   17.2925   12.9309 C   0  0  0  0  0  0  0  0  0  0  0  0
   41.1068   17.3767   11.9372 O   0  0  0  0  0  0  0  0  0  0  0  0
   39.2649   17.8954   13.0716 O   0  0  0  0  0  0  0  0  0  0  0  0
   42.1856   13.5746   14.8668 C   0  0  0  0  0  0  0  0  0  0  0  0
   41.1521   12.7037   13.5216 Br  0  0  0  0  0  0  0  0  0  0  0  0
   41.0347   11.0942   16.4477 C   0  0  0  0  0  0  0  0  0  0  0  0
   36.9986    6.5361   14.6018 H   0  0  0  0  0  0  0  0  0  0  0  0
   38.0862    5.6679   15.7375 H   0  0  0  0  0  0  0  0  0  0  0  0
   36.3710    5.1605   15.5715 H   0  0  0  0  0  0  0  0  0  0  0  0
   35.6235    7.3113   16.5187 H   0  0  0  0  0  0  0  0  0  0  0  0
   36.4370    7.0453   18.8480 H   0  0  0  0  0  0  0  0  0  0  0  0
   36.0369    5.4638   18.0961 H   0  0  0  0  0  0  0  0  0  0  0  0
   37.7521    5.9712   18.2622 H   0  0  0  0  0  0  0  0  0  0  0  0
   40.4289    7.3255   17.1027 H   0  0  0  0  0  0  0  0  0  0  0  0
   41.5671    7.9628   17.6313 H   0  0  0  0  0  0  0  0  0  0  0  0
   43.8814    8.8256   17.7327 H   0  0  0  0  0  0  0  0  0  0  0  0
   44.3798   11.1250   16.9849 H   0  0  0  0  0  0  0  0  0  0  0  0
   44.3779   18.3244   15.5825 H   0  0  0  0  0  0  0  0  0  0  0  0
   40.0261   15.5878   14.2106 H   0  0  0  0  0  0  0  0  0  0  0  0
   40.8927   16.9543   14.9906 H   0  0  0  0  0  0  0  0  0  0  0  0
   39.0978   18.4309   12.3049 H   0  0  0  0  0  0  0  0  0  0  0  0
   40.6918   11.1873   15.4067 H   0  0  0  0  0  0  0  0  0  0  0  0
   40.4376   11.7571   17.0911 H   0  0  0  0  0  0  0  0  0  0  0  0
  1  2  1  0  0  0  0
  2  3  1  0  0  0  0
  2  4  1  0  0  0  0
  4  5  2  0  0  0  0
  5  6  1  0  0  0  0
  5  7  1  0  0  0  0
  7  8  2  0  0  0  0
  8 27  1  0  0  0  0
  8  9  1  0  0  0  0
  9 10  2  0  0  0  0
 10 11  1  0  0  0  0
 11 12  2  0  0  0  0
 12 13  1  0  0  0  0
 12 27  1  0  0  0  0
 13 25  2  0  0  0  0
 13 14  1  0  0  0  0
 14 15  1  0  0  0  0
 15 16  1  0  0  0  0
 15 19  2  0  0  0  0
 16 17  2  0  0  0  0
 16 18  1  0  0  0  0
 19 20  1  0  0  0  0
 19 25  1  0  0  0  0
 20 21  1  0  0  0  0
 21 22  1  0  0  0  0
 22 23  2  0  0  0  0
 22 24  1  0  0  0  0
 25 26  1  0  0  0  0
  1 28  1  0  0  0  0
  1 29  1  0  0  0  0
  1 30  1  0  0  0  0
  2 31  1  0  0  0  0
  3 32  1  0  0  0  0
  3 33  1  0  0  0  0
  3 34  1  0  0  0  0
  6 35  1  0  0  0  0
  9 36  1  0  0  0  0
 10 37  1  0  0  0  0
 11 38  1  0  0  0  0
 18 39  1  0  0  0  0
 21 40  1  0  0  0  0
 21 41  1  0  0  0  0
 24 42  1  0  0  0  0
 27 43  1  0  0  0  0
 27 44  1  0  0  0  0
M  END
> <i_m_stars>
2

> <r_user_dG.exp>
-7.72301857947764

$$$$
