23472
  -OEChem-05192314073D
 Structure written by MMmdl.
 44 46  0     0  0  0  0  0  0999 V2000
   41.3359   17.7345   12.0655 O   0  0  0  0  0  0  0  0  0  0  0  0
   40.5033   17.5778   12.9865 C   0  0  0  0  0  0  0  0  0  0  0  0
   39.4360   18.2181   13.1106 O   0  0  0  0  0  0  0  0  0  0  0  0
   40.8111   16.5423   14.0704 C   0  0  0  0  0  0  0  0  0  0  0  0
   42.0187   15.8482   13.7866 O   0  0  0  0  0  0  0  0  0  0  0  0
   42.3640   14.9373   14.7216 C   0  0  0  0  0  0  0  0  0  0  0  0
   41.8832   13.5947   14.7447 C   0  0  0  0  0  0  0  0  0  0  0  0
   40.6955   12.9322   13.4088 Br  0  0  0  0  0  0  0  0  0  0  0  0
   42.3216   12.8413   15.8032 C   0  0  0  0  0  0  0  0  0  0  0  0
   42.0378   11.4574   16.1718 C   0  0  0  0  0  0  0  0  0  0  0  0
   43.0880   10.5560   16.4532 C   0  0  0  0  0  0  0  0  0  0  0  0
   42.8137    9.2218   16.8103 C   0  0  0  0  0  0  0  0  0  0  0  0
   41.4823    8.7730   16.8894 C   0  0  0  0  0  0  0  0  0  0  0  0
   40.4256    9.6609   16.6100 C   0  0  0  0  0  0  0  0  0  0  0  0
   39.0856    9.2639   16.6793 N   0  0  0  0  0  0  0  0  0  0  0  0
   38.4178    7.6851   16.9540 S   0  0  0  0  0  0  0  0  0  0  0  0
   39.0080    7.1971   18.2103 O   0  0  0  0  0  0  0  0  0  0  0  0
   36.9627    7.8421   16.8089 O   0  0  0  0  0  0  0  0  0  0  0  0
   39.0362    6.7270   15.5748 C   0  0  0  0  0  0  0  0  0  0  0  0
   38.2852    6.6759   14.3838 C   0  0  0  0  0  0  0  0  0  0  0  0
   38.7667    5.9320   13.2887 C   0  0  0  0  0  0  0  0  0  0  0  0
   39.9924    5.2434   13.3877 C   0  0  0  0  0  0  0  0  0  0  0  0
   40.4534    4.5292   12.3340 F   0  0  0  0  0  0  0  0  0  0  0  0
   40.7391    5.2967   14.5820 C   0  0  0  0  0  0  0  0  0  0  0  0
   40.2622    6.0390   15.6804 C   0  0  0  0  0  0  0  0  0  0  0  0
   40.7049   10.9955   16.2530 C   0  0  0  0  0  0  0  0  0  0  0  0
   43.3793   13.7909   16.8146 S   0  0  0  0  0  0  0  0  0  0  0  0
   43.2010   15.1994   15.7834 C   0  0  0  0  0  0  0  0  0  0  0  0
   43.9423   16.4178   16.1828 C   0  0  0  0  0  0  0  0  0  0  0  0
   43.8332   17.4437   15.4767 O   0  0  0  0  0  0  0  0  0  0  0  0
   44.6565   16.3915   17.2103 O   0  0  0  0  0  0  0  0  0  0  0  0
   39.3554   18.8412   12.3981 H   0  0  0  0  0  0  0  0  0  0  0  0
   40.9101   17.0545   15.0388 H   0  0  0  0  0  0  0  0  0  0  0  0
   39.9842   15.8187   14.1212 H   0  0  0  0  0  0  0  0  0  0  0  0
   44.1122   10.8935   16.3939 H   0  0  0  0  0  0  0  0  0  0  0  0
   43.6257    8.5424   17.0236 H   0  0  0  0  0  0  0  0  0  0  0  0
   41.2714    7.7499   17.1638 H   0  0  0  0  0  0  0  0  0  0  0  0
   38.6990    9.8261   17.4103 H   0  0  0  0  0  0  0  0  0  0  0  0
   37.3459    7.2039   14.3109 H   0  0  0  0  0  0  0  0  0  0  0  0
   38.1962    5.8893   12.3727 H   0  0  0  0  0  0  0  0  0  0  0  0
   41.6779    4.7679   14.6552 H   0  0  0  0  0  0  0  0  0  0  0  0
   40.8319    6.0807   16.5970 H   0  0  0  0  0  0  0  0  0  0  0  0
   39.8911   11.6726   16.0391 H   0  0  0  0  0  0  0  0  0  0  0  0
   45.0652   17.2401   17.3342 H   0  0  0  0  0  0  0  0  0  0  0  0
  1  2  2  0  0  0  0
  2  3  1  0  0  0  0
  2  4  1  0  0  0  0
  4  5  1  0  0  0  0
  5  6  1  0  0  0  0
  6 28  2  0  0  0  0
  6  7  1  0  0  0  0
  7  8  1  0  0  0  0
  7  9  2  0  0  0  0
  9 10  1  0  0  0  0
  9 27  1  0  0  0  0
 10 26  2  0  0  0  0
 10 11  1  0  0  0  0
 11 12  2  0  0  0  0
 12 13  1  0  0  0  0
 13 14  2  0  0  0  0
 14 15  1  0  0  0  0
 14 26  1  0  0  0  0
 15 16  1  0  0  0  0
 16 17  2  0  0  0  0
 16 18  2  0  0  0  0
 16 19  1  0  0  0  0
 19 25  2  0  0  0  0
 19 20  1  0  0  0  0
 20 21  2  0  0  0  0
 21 22  1  0  0  0  0
 22 23  1  0  0  0  0
 22 24  2  0  0  0  0
 24 25  1  0  0  0  0
 27 28  1  0  0  0  0
 28 29  1  0  0  0  0
 29 30  2  0  0  0  0
 29 31  1  0  0  0  0
  3 32  1  0  0  0  0
  4 33  1  0  0  0  0
  4 34  1  0  0  0  0
 11 35  1  0  0  0  0
 12 36  1  0  0  0  0
 13 37  1  0  0  0  0
 15 38  1  0  0  0  0
 20 39  1  0  0  0  0
 21 40  1  0  0  0  0
 24 41  1  0  0  0  0
 25 42  1  0  0  0  0
 26 43  1  0  0  0  0
 31 44  1  0  0  0  0
M  END
> <i_m_stars>
2

> <r_user_dG.exp>
-8.64628903953511

$$$$
23472
  -OEChem-05192314073D
 Structure written by MMmdl.
 44 46  0     0  0  0  0  0  0999 V2000
   41.3359   17.7345   12.0655 O   0  0  0  0  0  0  0  0  0  0  0  0
   40.5033   17.5778   12.9865 C   0  0  0  0  0  0  0  0  0  0  0  0
   39.4360   18.2181   13.1106 O   0  0  0  0  0  0  0  0  0  0  0  0
   40.8111   16.5423   14.0704 C   0  0  0  0  0  0  0  0  0  0  0  0
   42.0187   15.8482   13.7866 O   0  0  0  0  0  0  0  0  0  0  0  0
   42.3640   14.9373   14.7216 C   0  0  0  0  0  0  0  0  0  0  0  0
   41.8832   13.5947   14.7447 C   0  0  0  0  0  0  0  0  0  0  0  0
   40.6955   12.9322   13.4088 Br  0  0  0  0  0  0  0  0  0  0  0  0
   42.3216   12.8413   15.8032 C   0  0  0  0  0  0  0  0  0  0  0  0
   42.0378   11.4574   16.1718 C   0  0  0  0  0  0  0  0  0  0  0  0
   43.0880   10.5560   16.4532 C   0  0  0  0  0  0  0  0  0  0  0  0
   42.8137    9.2218   16.8103 C   0  0  0  0  0  0  0  0  0  0  0  0
   41.4823    8.7730   16.8894 C   0  0  0  0  0  0  0  0  0  0  0  0
   40.4256    9.6609   16.6100 C   0  0  0  0  0  0  0  0  0  0  0  0
   39.0856    9.2639   16.6793 N   0  0  0  0  0  0  0  0  0  0  0  0
   38.4178    7.6851   16.9540 S   0  0  0  0  0  0  0  0  0  0  0  0
   39.0080    7.1971   18.2103 O   0  0  0  0  0  0  0  0  0  0  0  0
   36.9627    7.8421   16.8089 O   0  0  0  0  0  0  0  0  0  0  0  0
   39.0362    6.7270   15.5748 C   0  0  0  0  0  0  0  0  0  0  0  0
   38.2852    6.6759   14.3838 C   0  0  0  0  0  0  0  0  0  0  0  0
   38.7667    5.9320   13.2887 C   0  0  0  0  0  0  0  0  0  0  0  0
   39.9924    5.2434   13.3877 C   0  0  0  0  0  0  0  0  0  0  0  0
   40.4534    4.5292   12.3340 F   0  0  0  0  0  0  0  0  0  0  0  0
   40.7391    5.2967   14.5820 C   0  0  0  0  0  0  0  0  0  0  0  0
   40.2622    6.0390   15.6804 C   0  0  0  0  0  0  0  0  0  0  0  0
   40.7049   10.9955   16.2530 C   0  0  0  0  0  0  0  0  0  0  0  0
   43.3793   13.7909   16.8146 S   0  0  0  0  0  0  0  0  0  0  0  0
   43.2010   15.1994   15.7834 C   0  0  0  0  0  0  0  0  0  0  0  0
   43.9423   16.4178   16.1828 C   0  0  0  0  0  0  0  0  0  0  0  0
   43.8332   17.4437   15.4767 O   0  0  0  0  0  0  0  0  0  0  0  0
   44.6565   16.3915   17.2103 O   0  0  0  0  0  0  0  0  0  0  0  0
   39.3554   18.8412   12.3981 H   0  0  0  0  0  0  0  0  0  0  0  0
   40.9101   17.0545   15.0388 H   0  0  0  0  0  0  0  0  0  0  0  0
   39.9842   15.8187   14.1212 H   0  0  0  0  0  0  0  0  0  0  0  0
   44.1122   10.8935   16.3939 H   0  0  0  0  0  0  0  0  0  0  0  0
   43.6257    8.5424   17.0236 H   0  0  0  0  0  0  0  0  0  0  0  0
   41.3871    7.9333   16.1852 H   0  0  0  0  0  0  0  0  0  0  0  0
   41.3295    8.4095   17.9163 H   0  0  0  0  0  0  0  0  0  0  0  0
   37.3459    7.2039   14.3109 H   0  0  0  0  0  0  0  0  0  0  0  0
   38.1962    5.8893   12.3727 H   0  0  0  0  0  0  0  0  0  0  0  0
   41.6779    4.7679   14.6552 H   0  0  0  0  0  0  0  0  0  0  0  0
   40.8319    6.0807   16.5970 H   0  0  0  0  0  0  0  0  0  0  0  0
   39.8911   11.6726   16.0391 H   0  0  0  0  0  0  0  0  0  0  0  0
   45.0652   17.2401   17.3342 H   0  0  0  0  0  0  0  0  0  0  0  0
  1  2  2  0  0  0  0
  2  3  1  0  0  0  0
  2  4  1  0  0  0  0
  4  5  1  0  0  0  0
  5  6  1  0  0  0  0
  6 28  2  0  0  0  0
  6  7  1  0  0  0  0
  7  8  1  0  0  0  0
  7  9  2  0  0  0  0
  9 10  1  0  0  0  0
  9 27  1  0  0  0  0
 10 26  2  0  0  0  0
 10 11  1  0  0  0  0
 11 12  2  0  0  0  0
 12 13  1  0  0  0  0
 13 14  1  0  0  0  0
 14 15  2  0  0  0  0
 14 26  1  0  0  0  0
 15 16  1  0  0  0  0
 16 17  2  0  0  0  0
 16 18  2  0  0  0  0
 16 19  1  0  0  0  0
 19 25  2  0  0  0  0
 19 20  1  0  0  0  0
 20 21  2  0  0  0  0
 21 22  1  0  0  0  0
 22 23  1  0  0  0  0
 22 24  2  0  0  0  0
 24 25  1  0  0  0  0
 27 28  1  0  0  0  0
 28 29  1  0  0  0  0
 29 30  2  0  0  0  0
 29 31  1  0  0  0  0
  3 32  1  0  0  0  0
  4 33  1  0  0  0  0
  4 34  1  0  0  0  0
 11 35  1  0  0  0  0
 12 36  1  0  0  0  0
 13 37  1  0  0  0  0
 13 38  1  0  0  0  0
 20 39  1  0  0  0  0
 21 40  1  0  0  0  0
 24 41  1  0  0  0  0
 25 42  1  0  0  0  0
 26 43  1  0  0  0  0
 31 44  1  0  0  0  0
M  END
> <i_m_stars>
2

> <r_user_dG.exp>
-8.64628903953511

$$$$
23472
  -OEChem-05192314073D
 Structure written by MMmdl.
 44 46  0     0  0  0  0  0  0999 V2000
   41.3359   17.7345   12.0655 O   0  0  0  0  0  0  0  0  0  0  0  0
   40.5033   17.5778   12.9865 C   0  0  0  0  0  0  0  0  0  0  0  0
   39.4360   18.2181   13.1106 O   0  0  0  0  0  0  0  0  0  0  0  0
   40.8111   16.5423   14.0704 C   0  0  0  0  0  0  0  0  0  0  0  0
   42.0187   15.8482   13.7866 O   0  0  0  0  0  0  0  0  0  0  0  0
   42.3640   14.9373   14.7216 C   0  0  0  0  0  0  0  0  0  0  0  0
   41.8832   13.5947   14.7447 C   0  0  0  0  0  0  0  0  0  0  0  0
   40.6955   12.9322   13.4088 Br  0  0  0  0  0  0  0  0  0  0  0  0
   42.3216   12.8413   15.8032 C   0  0  0  0  0  0  0  0  0  0  0  0
   42.0378   11.4574   16.1718 C   0  0  0  0  0  0  0  0  0  0  0  0
   43.0880   10.5560   16.4532 C   0  0  0  0  0  0  0  0  0  0  0  0
   42.8137    9.2218   16.8103 C   0  0  0  0  0  0  0  0  0  0  0  0
   41.4823    8.7730   16.8894 C   0  0  0  0  0  0  0  0  0  0  0  0
   40.4256    9.6609   16.6100 C   0  0  0  0  0  0  0  0  0  0  0  0
   39.0856    9.2639   16.6793 N   0  0  0  0  0  0  0  0  0  0  0  0
   38.4178    7.6851   16.9540 S   0  0  0  0  0  0  0  0  0  0  0  0
   39.0080    7.1971   18.2103 O   0  0  0  0  0  0  0  0  0  0  0  0
   36.9627    7.8421   16.8089 O   0  0  0  0  0  0  0  0  0  0  0  0
   39.0362    6.7270   15.5748 C   0  0  0  0  0  0  0  0  0  0  0  0
   38.2852    6.6759   14.3838 C   0  0  0  0  0  0  0  0  0  0  0  0
   38.7667    5.9320   13.2887 C   0  0  0  0  0  0  0  0  0  0  0  0
   39.9924    5.2434   13.3877 C   0  0  0  0  0  0  0  0  0  0  0  0
   40.4534    4.5292   12.3340 F   0  0  0  0  0  0  0  0  0  0  0  0
   40.7391    5.2967   14.5820 C   0  0  0  0  0  0  0  0  0  0  0  0
   40.2622    6.0390   15.6804 C   0  0  0  0  0  0  0  0  0  0  0  0
   40.7049   10.9955   16.2530 C   0  0  0  0  0  0  0  0  0  0  0  0
   43.3793   13.7909   16.8146 S   0  0  0  0  0  0  0  0  0  0  0  0
   43.2010   15.1994   15.7834 C   0  0  0  0  0  0  0  0  0  0  0  0
   43.9423   16.4178   16.1828 C   0  0  0  0  0  0  0  0  0  0  0  0
   43.8332   17.4437   15.4767 O   0  0  0  0  0  0  0  0  0  0  0  0
   44.6565   16.3915   17.2103 O   0  0  0  0  0  0  0  0  0  0  0  0
   39.3554   18.8412   12.3981 H   0  0  0  0  0  0  0  0  0  0  0  0
   40.9101   17.0545   15.0388 H   0  0  0  0  0  0  0  0  0  0  0  0
   39.9842   15.8187   14.1212 H   0  0  0  0  0  0  0  0  0  0  0  0
   43.7184   10.5170   15.5526 H   0  0  0  0  0  0  0  0  0  0  0  0
   43.6621   10.9920   17.2840 H   0  0  0  0  0  0  0  0  0  0  0  0
   43.6257    8.5424   17.0236 H   0  0  0  0  0  0  0  0  0  0  0  0
   41.2714    7.7499   17.1638 H   0  0  0  0  0  0  0  0  0  0  0  0
   37.3459    7.2039   14.3109 H   0  0  0  0  0  0  0  0  0  0  0  0
   38.1962    5.8893   12.3727 H   0  0  0  0  0  0  0  0  0  0  0  0
   41.6779    4.7679   14.6552 H   0  0  0  0  0  0  0  0  0  0  0  0
   40.8319    6.0807   16.5970 H   0  0  0  0  0  0  0  0  0  0  0  0
   39.8911   11.6726   16.0391 H   0  0  0  0  0  0  0  0  0  0  0  0
   45.0652   17.2401   17.3342 H   0  0  0  0  0  0  0  0  0  0  0  0
  1  2  2  0  0  0  0
  2  3  1  0  0  0  0
  2  4  1  0  0  0  0
  4  5  1  0  0  0  0
  5  6  1  0  0  0  0
  6 28  2  0  0  0  0
  6  7  1  0  0  0  0
  7  8  1  0  0  0  0
  7  9  2  0  0  0  0
  9 10  1  0  0  0  0
  9 27  1  0  0  0  0
 10 26  2  0  0  0  0
 10 11  1  0  0  0  0
 11 12  1  0  0  0  0
 12 13  2  0  0  0  0
 13 14  1  0  0  0  0
 14 15  2  0  0  0  0
 14 26  1  0  0  0  0
 15 16  1  0  0  0  0
 16 17  2  0  0  0  0
 16 18  2  0  0  0  0
 16 19  1  0  0  0  0
 19 25  2  0  0  0  0
 19 20  1  0  0  0  0
 20 21  2  0  0  0  0
 21 22  1  0  0  0  0
 22 23  1  0  0  0  0
 22 24  2  0  0  0  0
 24 25  1  0  0  0  0
 27 28  1  0  0  0  0
 28 29  1  0  0  0  0
 29 30  2  0  0  0  0
 29 31  1  0  0  0  0
  3 32  1  0  0  0  0
  4 33  1  0  0  0  0
  4 34  1  0  0  0  0
 11 35  1  0  0  0  0
 11 36  1  0  0  0  0
 12 37  1  0  0  0  0
 13 38  1  0  0  0  0
 20 39  1  0  0  0  0
 21 40  1  0  0  0  0
 24 41  1  0  0  0  0
 25 42  1  0  0  0  0
 26 43  1  0  0  0  0
 31 44  1  0  0  0  0
M  END
> <i_m_stars>
2

> <r_user_dG.exp>
-8.64628903953511

$$$$
23472
  -OEChem-05192314073D
 Structure written by MMmdl.
 44 46  0     0  0  0  0  0  0999 V2000
   41.3359   17.7345   12.0655 O   0  0  0  0  0  0  0  0  0  0  0  0
   40.5033   17.5778   12.9865 C   0  0  0  0  0  0  0  0  0  0  0  0
   39.4360   18.2181   13.1106 O   0  0  0  0  0  0  0  0  0  0  0  0
   40.8111   16.5423   14.0704 C   0  0  0  0  0  0  0  0  0  0  0  0
   42.0187   15.8482   13.7866 O   0  0  0  0  0  0  0  0  0  0  0  0
   42.3640   14.9373   14.7216 C   0  0  0  0  0  0  0  0  0  0  0  0
   41.8832   13.5947   14.7447 C   0  0  0  0  0  0  0  0  0  0  0  0
   40.6955   12.9322   13.4088 Br  0  0  0  0  0  0  0  0  0  0  0  0
   42.3216   12.8413   15.8032 C   0  0  0  0  0  0  0  0  0  0  0  0
   42.0378   11.4574   16.1718 C   0  0  0  0  0  0  0  0  0  0  0  0
   43.0880   10.5560   16.4532 C   0  0  0  0  0  0  0  0  0  0  0  0
   42.8137    9.2218   16.8103 C   0  0  0  0  0  0  0  0  0  0  0  0
   41.4823    8.7730   16.8894 C   0  0  0  0  0  0  0  0  0  0  0  0
   40.4256    9.6609   16.6100 C   0  0  0  0  0  0  0  0  0  0  0  0
   39.0856    9.2639   16.6793 N   0  0  0  0  0  0  0  0  0  0  0  0
   38.4178    7.6851   16.9540 S   0  0  0  0  0  0  0  0  0  0  0  0
   39.0080    7.1971   18.2103 O   0  0  0  0  0  0  0  0  0  0  0  0
   36.9627    7.8421   16.8089 O   0  0  0  0  0  0  0  0  0  0  0  0
   39.0362    6.7270   15.5748 C   0  0  0  0  0  0  0  0  0  0  0  0
   38.2852    6.6759   14.3838 C   0  0  0  0  0  0  0  0  0  0  0  0
   38.7667    5.9320   13.2887 C   0  0  0  0  0  0  0  0  0  0  0  0
   39.9924    5.2434   13.3877 C   0  0  0  0  0  0  0  0  0  0  0  0
   40.4534    4.5292   12.3340 F   0  0  0  0  0  0  0  0  0  0  0  0
   40.7391    5.2967   14.5820 C   0  0  0  0  0  0  0  0  0  0  0  0
   40.2622    6.0390   15.6804 C   0  0  0  0  0  0  0  0  0  0  0  0
   40.7049   10.9955   16.2530 C   0  0  0  0  0  0  0  0  0  0  0  0
   43.3793   13.7909   16.8146 S   0  0  0  0  0  0  0  0  0  0  0  0
   43.2010   15.1994   15.7834 C   0  0  0  0  0  0  0  0  0  0  0  0
   43.9423   16.4178   16.1828 C   0  0  0  0  0  0  0  0  0  0  0  0
   43.8332   17.4437   15.4767 O   0  0  0  0  0  0  0  0  0  0  0  0
   44.6565   16.3915   17.2103 O   0  0  0  0  0  0  0  0  0  0  0  0
   39.3554   18.8412   12.3981 H   0  0  0  0  0  0  0  0  0  0  0  0
   40.9101   17.0545   15.0388 H   0  0  0  0  0  0  0  0  0  0  0  0
   39.9842   15.8187   14.1212 H   0  0  0  0  0  0  0  0  0  0  0  0
   44.1122   10.8935   16.3939 H   0  0  0  0  0  0  0  0  0  0  0  0
   43.6257    8.5424   17.0236 H   0  0  0  0  0  0  0  0  0  0  0  0
   41.2714    7.7499   17.1638 H   0  0  0  0  0  0  0  0  0  0  0  0
   37.3459    7.2039   14.3109 H   0  0  0  0  0  0  0  0  0  0  0  0
   38.1962    5.8893   12.3727 H   0  0  0  0  0  0  0  0  0  0  0  0
   41.6779    4.7679   14.6552 H   0  0  0  0  0  0  0  0  0  0  0  0
   40.8319    6.0807   16.5970 H   0  0  0  0  0  0  0  0  0  0  0  0
   40.1967   11.6314   16.9928 H   0  0  0  0  0  0  0  0  0  0  0  0
   40.2560   11.1559   15.2616 H   0  0  0  0  0  0  0  0  0  0  0  0
   45.0652   17.2401   17.3342 H   0  0  0  0  0  0  0  0  0  0  0  0
  1  2  2  0  0  0  0
  2  3  1  0  0  0  0
  2  4  1  0  0  0  0
  4  5  1  0  0  0  0
  5  6  1  0  0  0  0
  6 28  2  0  0  0  0
  6  7  1  0  0  0  0
  7  8  1  0  0  0  0
  7  9  2  0  0  0  0
  9 10  1  0  0  0  0
  9 27  1  0  0  0  0
 10 26  1  0  0  0  0
 10 11  2  0  0  0  0
 11 12  1  0  0  0  0
 12 13  2  0  0  0  0
 13 14  1  0  0  0  0
 14 15  2  0  0  0  0
 14 26  1  0  0  0  0
 15 16  1  0  0  0  0
 16 17  2  0  0  0  0
 16 18  2  0  0  0  0
 16 19  1  0  0  0  0
 19 25  2  0  0  0  0
 19 20  1  0  0  0  0
 20 21  2  0  0  0  0
 21 22  1  0  0  0  0
 22 23  1  0  0  0  0
 22 24  2  0  0  0  0
 24 25  1  0  0  0  0
 27 28  1  0  0  0  0
 28 29  1  0  0  0  0
 29 30  2  0  0  0  0
 29 31  1  0  0  0  0
  3 32  1  0  0  0  0
  4 33  1  0  0  0  0
  4 34  1  0  0  0  0
 11 35  1  0  0  0  0
 12 36  1  0  0  0  0
 13 37  1  0  0  0  0
 20 38  1  0  0  0  0
 21 39  1  0  0  0  0
 24 40  1  0  0  0  0
 25 41  1  0  0  0  0
 26 42  1  0  0  0  0
 26 43  1  0  0  0  0
 31 44  1  0  0  0  0
M  END
> <i_m_stars>
2

> <r_user_dG.exp>
-8.64628903953511

$$$$
