23485
  -OEChem-05192314073D
 Structure written by MMmdl.
 65 68  0     0  0  0  0  0  0999 V2000
   41.3040   13.2036   13.4628 C   0  0  0  0  0  0  0  0  0  0  0  0
   42.1050   13.7638   14.6029 C   0  0  0  0  0  0  0  0  0  0  0  0
   42.5067   15.0961   14.5535 C   0  0  0  0  0  0  0  0  0  0  0  0
   42.1497   15.9428   13.5632 O   0  0  0  0  0  0  0  0  0  0  0  0
   41.1085   16.8483   13.9109 C   0  0  0  0  0  0  0  0  0  0  0  0
   40.5926   17.5867   12.6738 C   0  0  0  0  0  0  0  0  0  0  0  0
   41.2437   17.4781   11.6105 O   0  0  0  0  0  0  0  0  0  0  0  0
   39.5308   18.2342   12.8065 O   0  0  0  0  0  0  0  0  0  0  0  0
   43.3217   15.4163   15.6304 C   0  0  0  0  0  0  0  0  0  0  0  0
   44.0363   16.6612   16.0003 C   0  0  0  0  0  0  0  0  0  0  0  0
   44.7190   16.6734   17.0477 O   0  0  0  0  0  0  0  0  0  0  0  0
   43.9409   17.6673   15.2623 O   0  0  0  0  0  0  0  0  0  0  0  0
   43.4983   14.0501   16.7177 S   0  0  0  0  0  0  0  0  0  0  0  0
   42.4736   13.0428   15.7309 C   0  0  0  0  0  0  0  0  0  0  0  0
   42.1345   11.6814   16.1187 C   0  0  0  0  0  0  0  0  0  0  0  0
   43.0991   10.8232   16.6550 C   0  0  0  0  0  0  0  0  0  0  0  0
   42.7730    9.5138   17.0059 C   0  0  0  0  0  0  0  0  0  0  0  0
   41.4767    9.0403   16.8075 C   0  0  0  0  0  0  0  0  0  0  0  0
   40.4943    9.8795   16.2662 C   0  0  0  0  0  0  0  0  0  0  0  0
   39.1733    9.4611   16.0229 N   0  0  0  0  0  0  0  0  0  0  0  0
   38.8803    8.0706   15.6816 C   0  0  0  0  0  0  0  0  0  0  0  0
   37.3499    7.8627   15.5714 C   0  0  0  0  0  0  0  0  0  0  0  0
   36.9746    6.4537   15.0726 C   0  0  0  0  0  0  0  0  0  0  0  0
   37.7104    6.1236   13.8434 N   0  0  0  0  0  0  0  0  0  0  0  0
   36.9761    5.2050   12.5892 S   0  0  0  0  0  0  0  0  0  0  0  0
   37.8364    5.3259   11.4042 O   0  0  0  0  0  0  0  0  0  0  0  0
   35.5548    5.5863   12.5166 O   0  0  0  0  0  0  0  0  0  0  0  0
   37.1037    3.4728   13.2183 C   0  0  0  0  0  0  0  0  0  0  0  0
   36.7137    2.5266   12.0998 C   0  0  0  0  0  0  0  0  0  0  0  0
   35.3715    2.1867   11.9063 C   0  0  0  0  0  0  0  0  0  0  0  0
   35.0075    1.3509   10.8514 C   0  0  0  0  0  0  0  0  0  0  0  0
   35.9839    0.8540    9.9894 C   0  0  0  0  0  0  0  0  0  0  0  0
   37.3260    1.1810   10.1830 C   0  0  0  0  0  0  0  0  0  0  0  0
   37.6914    2.0147   11.2396 C   0  0  0  0  0  0  0  0  0  0  0  0
   39.1749    6.2318   13.9220 C   0  0  0  0  0  0  0  0  0  0  0  0
   39.5890    7.6410   14.3716 C   0  0  0  0  0  0  0  0  0  0  0  0
   40.8302   11.1974   15.9487 C   0  0  0  0  0  0  0  0  0  0  0  0
   40.2320   13.3527   13.6591 H   0  0  0  0  0  0  0  0  0  0  0  0
   41.5814   13.7194   12.5317 H   0  0  0  0  0  0  0  0  0  0  0  0
   41.5121   12.1282   13.3622 H   0  0  0  0  0  0  0  0  0  0  0  0
   40.2799   16.2867   14.3669 H   0  0  0  0  0  0  0  0  0  0  0  0
   41.4954   17.5821   14.6333 H   0  0  0  0  0  0  0  0  0  0  0  0
   39.2952   18.6305   11.9759 H   0  0  0  0  0  0  0  0  0  0  0  0
   44.4500   18.3800   15.6303 H   0  0  0  0  0  0  0  0  0  0  0  0
   44.1087   11.1787   16.7992 H   0  0  0  0  0  0  0  0  0  0  0  0
   43.5250    8.8659   17.4316 H   0  0  0  0  0  0  0  0  0  0  0  0
   41.2291    8.0229   17.0721 H   0  0  0  0  0  0  0  0  0  0  0  0
   38.6516    9.6677   16.8506 H   0  0  0  0  0  0  0  0  0  0  0  0
   39.2490    7.4217   16.4897 H   0  0  0  0  0  0  0  0  0  0  0  0
   36.9018    8.0153   16.5643 H   0  0  0  0  0  0  0  0  0  0  0  0
   36.9439    8.6046   14.8680 H   0  0  0  0  0  0  0  0  0  0  0  0
   37.2232    5.7172   15.8509 H   0  0  0  0  0  0  0  0  0  0  0  0
   35.8945    6.4194   14.8670 H   0  0  0  0  0  0  0  0  0  0  0  0
   38.1371    3.2678   13.5347 H   0  0  0  0  0  0  0  0  0  0  0  0
   36.4248    3.3372   14.0731 H   0  0  0  0  0  0  0  0  0  0  0  0
   34.6157    2.5720   12.5747 H   0  0  0  0  0  0  0  0  0  0  0  0
   33.9705    1.0888   10.7023 H   0  0  0  0  0  0  0  0  0  0  0  0
   35.6999    0.2129    9.1679 H   0  0  0  0  0  0  0  0  0  0  0  0
   38.0802    0.7896    9.5164 H   0  0  0  0  0  0  0  0  0  0  0  0
   38.7304    2.2656   11.3941 H   0  0  0  0  0  0  0  0  0  0  0  0
   39.5536    5.4954   14.6461 H   0  0  0  0  0  0  0  0  0  0  0  0
   39.6063    6.0270   12.9311 H   0  0  0  0  0  0  0  0  0  0  0  0
   39.3294    8.3566   13.5775 H   0  0  0  0  0  0  0  0  0  0  0  0
   40.6765    7.6548   14.5364 H   0  0  0  0  0  0  0  0  0  0  0  0
   40.0678   11.8584   15.5636 H   0  0  0  0  0  0  0  0  0  0  0  0
  1  2  1  0  0  0  0
  2 14  2  0  0  0  0
  2  3  1  0  0  0  0
  3  4  1  0  0  0  0
  3  9  2  0  0  0  0
  4  5  1  0  0  0  0
  5  6  1  0  0  0  0
  6  7  2  0  0  0  0
  6  8  1  0  0  0  0
  9 10  1  0  0  0  0
  9 13  1  0  0  0  0
 10 11  2  0  0  0  0
 10 12  1  0  0  0  0
 13 14  1  0  0  0  0
 14 15  1  0  0  0  0
 15 37  2  0  0  0  0
 15 16  1  0  0  0  0
 16 17  2  0  0  0  0
 17 18  1  0  0  0  0
 18 19  2  0  0  0  0
 19 20  1  0  0  0  0
 19 37  1  0  0  0  0
 20 21  1  0  0  0  0
 21 36  1  0  0  0  0
 21 22  1  0  0  0  0
 22 23  1  0  0  0  0
 23 24  1  0  0  0  0
 24 25  1  0  0  0  0
 24 35  1  0  0  0  0
 25 26  2  0  0  0  0
 25 27  2  0  0  0  0
 25 28  1  0  0  0  0
 28 29  1  0  0  0  0
 29 34  2  0  0  0  0
 29 30  1  0  0  0  0
 30 31  2  0  0  0  0
 31 32  1  0  0  0  0
 32 33  2  0  0  0  0
 33 34  1  0  0  0  0
 35 36  1  0  0  0  0
  1 38  1  0  0  0  0
  1 39  1  0  0  0  0
  1 40  1  0  0  0  0
  5 41  1  0  0  0  0
  5 42  1  0  0  0  0
  8 43  1  0  0  0  0
 12 44  1  0  0  0  0
 16 45  1  0  0  0  0
 17 46  1  0  0  0  0
 18 47  1  0  0  0  0
 20 48  1  0  0  0  0
 21 49  1  0  0  0  0
 22 50  1  0  0  0  0
 22 51  1  0  0  0  0
 23 52  1  0  0  0  0
 23 53  1  0  0  0  0
 28 54  1  0  0  0  0
 28 55  1  0  0  0  0
 30 56  1  0  0  0  0
 31 57  1  0  0  0  0
 32 58  1  0  0  0  0
 33 59  1  0  0  0  0
 34 60  1  0  0  0  0
 35 61  1  0  0  0  0
 35 62  1  0  0  0  0
 36 63  1  0  0  0  0
 36 64  1  0  0  0  0
 37 65  1  0  0  0  0
M  END
> <i_m_stars>
2

> <r_user_dG.exp>
-11.0135614094467

$$$$
23485
  -OEChem-05192314073D
 Structure written by MMmdl.
 65 68  0     0  0  0  0  0  0999 V2000
   41.3040   13.2036   13.4628 C   0  0  0  0  0  0  0  0  0  0  0  0
   42.1050   13.7638   14.6029 C   0  0  0  0  0  0  0  0  0  0  0  0
   42.5067   15.0961   14.5535 C   0  0  0  0  0  0  0  0  0  0  0  0
   42.1497   15.9428   13.5632 O   0  0  0  0  0  0  0  0  0  0  0  0
   41.1085   16.8483   13.9109 C   0  0  0  0  0  0  0  0  0  0  0  0
   40.5926   17.5867   12.6738 C   0  0  0  0  0  0  0  0  0  0  0  0
   41.2437   17.4781   11.6105 O   0  0  0  0  0  0  0  0  0  0  0  0
   39.5308   18.2342   12.8065 O   0  0  0  0  0  0  0  0  0  0  0  0
   43.3217   15.4163   15.6304 C   0  0  0  0  0  0  0  0  0  0  0  0
   44.0363   16.6612   16.0003 C   0  0  0  0  0  0  0  0  0  0  0  0
   44.7190   16.6734   17.0477 O   0  0  0  0  0  0  0  0  0  0  0  0
   43.9409   17.6673   15.2623 O   0  0  0  0  0  0  0  0  0  0  0  0
   43.4983   14.0501   16.7177 S   0  0  0  0  0  0  0  0  0  0  0  0
   42.4736   13.0428   15.7309 C   0  0  0  0  0  0  0  0  0  0  0  0
   42.1345   11.6814   16.1187 C   0  0  0  0  0  0  0  0  0  0  0  0
   43.0991   10.8232   16.6550 C   0  0  0  0  0  0  0  0  0  0  0  0
   42.7730    9.5138   17.0059 C   0  0  0  0  0  0  0  0  0  0  0  0
   41.4767    9.0403   16.8075 C   0  0  0  0  0  0  0  0  0  0  0  0
   40.4943    9.8795   16.2662 C   0  0  0  0  0  0  0  0  0  0  0  0
   39.1733    9.4611   16.0229 N   0  0  0  0  0  0  0  0  0  0  0  0
   38.8803    8.0706   15.6816 C   0  0  0  0  0  0  0  0  0  0  0  0
   37.3499    7.8627   15.5714 C   0  0  0  0  0  0  0  0  0  0  0  0
   36.9746    6.4537   15.0726 C   0  0  0  0  0  0  0  0  0  0  0  0
   37.7104    6.1236   13.8434 N   0  0  0  0  0  0  0  0  0  0  0  0
   36.9761    5.2050   12.5892 S   0  0  0  0  0  0  0  0  0  0  0  0
   37.8364    5.3259   11.4042 O   0  0  0  0  0  0  0  0  0  0  0  0
   35.5548    5.5863   12.5166 O   0  0  0  0  0  0  0  0  0  0  0  0
   37.1037    3.4728   13.2183 C   0  0  0  0  0  0  0  0  0  0  0  0
   36.7137    2.5266   12.0998 C   0  0  0  0  0  0  0  0  0  0  0  0
   35.3715    2.1867   11.9063 C   0  0  0  0  0  0  0  0  0  0  0  0
   35.0075    1.3509   10.8514 C   0  0  0  0  0  0  0  0  0  0  0  0
   35.9839    0.8540    9.9894 C   0  0  0  0  0  0  0  0  0  0  0  0
   37.3260    1.1810   10.1830 C   0  0  0  0  0  0  0  0  0  0  0  0
   37.6914    2.0147   11.2396 C   0  0  0  0  0  0  0  0  0  0  0  0
   39.1749    6.2318   13.9220 C   0  0  0  0  0  0  0  0  0  0  0  0
   39.5890    7.6410   14.3716 C   0  0  0  0  0  0  0  0  0  0  0  0
   40.8302   11.1974   15.9487 C   0  0  0  0  0  0  0  0  0  0  0  0
   40.2320   13.3527   13.6591 H   0  0  0  0  0  0  0  0  0  0  0  0
   41.5814   13.7194   12.5317 H   0  0  0  0  0  0  0  0  0  0  0  0
   41.5121   12.1282   13.3622 H   0  0  0  0  0  0  0  0  0  0  0  0
   40.2799   16.2867   14.3669 H   0  0  0  0  0  0  0  0  0  0  0  0
   41.4954   17.5821   14.6333 H   0  0  0  0  0  0  0  0  0  0  0  0
   39.2952   18.6305   11.9759 H   0  0  0  0  0  0  0  0  0  0  0  0
   44.4500   18.3800   15.6303 H   0  0  0  0  0  0  0  0  0  0  0  0
   44.1087   11.1787   16.7992 H   0  0  0  0  0  0  0  0  0  0  0  0
   43.5250    8.8659   17.4316 H   0  0  0  0  0  0  0  0  0  0  0  0
   41.5561    8.1723   16.1365 H   0  0  0  0  0  0  0  0  0  0  0  0
   41.1061    8.7118   17.7897 H   0  0  0  0  0  0  0  0  0  0  0  0
   39.2490    7.4217   16.4897 H   0  0  0  0  0  0  0  0  0  0  0  0
   36.9018    8.0153   16.5643 H   0  0  0  0  0  0  0  0  0  0  0  0
   36.9439    8.6046   14.8680 H   0  0  0  0  0  0  0  0  0  0  0  0
   37.2232    5.7172   15.8509 H   0  0  0  0  0  0  0  0  0  0  0  0
   35.8945    6.4194   14.8670 H   0  0  0  0  0  0  0  0  0  0  0  0
   38.1371    3.2678   13.5347 H   0  0  0  0  0  0  0  0  0  0  0  0
   36.4248    3.3372   14.0731 H   0  0  0  0  0  0  0  0  0  0  0  0
   34.6157    2.5720   12.5747 H   0  0  0  0  0  0  0  0  0  0  0  0
   33.9705    1.0888   10.7023 H   0  0  0  0  0  0  0  0  0  0  0  0
   35.6999    0.2129    9.1679 H   0  0  0  0  0  0  0  0  0  0  0  0
   38.0802    0.7896    9.5164 H   0  0  0  0  0  0  0  0  0  0  0  0
   38.7304    2.2656   11.3941 H   0  0  0  0  0  0  0  0  0  0  0  0
   39.5536    5.4954   14.6461 H   0  0  0  0  0  0  0  0  0  0  0  0
   39.6063    6.0270   12.9311 H   0  0  0  0  0  0  0  0  0  0  0  0
   39.3294    8.3566   13.5775 H   0  0  0  0  0  0  0  0  0  0  0  0
   40.6765    7.6548   14.5364 H   0  0  0  0  0  0  0  0  0  0  0  0
   40.0678   11.8584   15.5636 H   0  0  0  0  0  0  0  0  0  0  0  0
  1  2  1  0  0  0  0
  2 14  2  0  0  0  0
  2  3  1  0  0  0  0
  3  4  1  0  0  0  0
  3  9  2  0  0  0  0
  4  5  1  0  0  0  0
  5  6  1  0  0  0  0
  6  7  2  0  0  0  0
  6  8  1  0  0  0  0
  9 10  1  0  0  0  0
  9 13  1  0  0  0  0
 10 11  2  0  0  0  0
 10 12  1  0  0  0  0
 13 14  1  0  0  0  0
 14 15  1  0  0  0  0
 15 37  2  0  0  0  0
 15 16  1  0  0  0  0
 16 17  2  0  0  0  0
 17 18  1  0  0  0  0
 18 19  1  0  0  0  0
 19 20  2  3  0  0  0
 19 37  1  0  0  0  0
 20 21  1  0  0  0  0
 21 36  1  0  0  0  0
 21 22  1  0  0  0  0
 22 23  1  0  0  0  0
 23 24  1  0  0  0  0
 24 25  1  0  0  0  0
 24 35  1  0  0  0  0
 25 26  2  0  0  0  0
 25 27  2  0  0  0  0
 25 28  1  0  0  0  0
 28 29  1  0  0  0  0
 29 34  2  0  0  0  0
 29 30  1  0  0  0  0
 30 31  2  0  0  0  0
 31 32  1  0  0  0  0
 32 33  2  0  0  0  0
 33 34  1  0  0  0  0
 35 36  1  0  0  0  0
  1 38  1  0  0  0  0
  1 39  1  0  0  0  0
  1 40  1  0  0  0  0
  5 41  1  0  0  0  0
  5 42  1  0  0  0  0
  8 43  1  0  0  0  0
 12 44  1  0  0  0  0
 16 45  1  0  0  0  0
 17 46  1  0  0  0  0
 18 47  1  0  0  0  0
 18 48  1  0  0  0  0
 21 49  1  0  0  0  0
 22 50  1  0  0  0  0
 22 51  1  0  0  0  0
 23 52  1  0  0  0  0
 23 53  1  0  0  0  0
 28 54  1  0  0  0  0
 28 55  1  0  0  0  0
 30 56  1  0  0  0  0
 31 57  1  0  0  0  0
 32 58  1  0  0  0  0
 33 59  1  0  0  0  0
 34 60  1  0  0  0  0
 35 61  1  0  0  0  0
 35 62  1  0  0  0  0
 36 63  1  0  0  0  0
 36 64  1  0  0  0  0
 37 65  1  0  0  0  0
M  END
> <i_m_stars>
2

> <r_user_dG.exp>
-11.0135614094467

$$$$
23485
  -OEChem-05192314073D
 Structure written by MMmdl.
 65 68  0     0  0  0  0  0  0999 V2000
   41.3040   13.2036   13.4628 C   0  0  0  0  0  0  0  0  0  0  0  0
   42.1050   13.7638   14.6029 C   0  0  0  0  0  0  0  0  0  0  0  0
   42.5067   15.0961   14.5535 C   0  0  0  0  0  0  0  0  0  0  0  0
   42.1497   15.9428   13.5632 O   0  0  0  0  0  0  0  0  0  0  0  0
   41.1085   16.8483   13.9109 C   0  0  0  0  0  0  0  0  0  0  0  0
   40.5926   17.5867   12.6738 C   0  0  0  0  0  0  0  0  0  0  0  0
   41.2437   17.4781   11.6105 O   0  0  0  0  0  0  0  0  0  0  0  0
   39.5308   18.2342   12.8065 O   0  0  0  0  0  0  0  0  0  0  0  0
   43.3217   15.4163   15.6304 C   0  0  0  0  0  0  0  0  0  0  0  0
   44.0363   16.6612   16.0003 C   0  0  0  0  0  0  0  0  0  0  0  0
   44.7190   16.6734   17.0477 O   0  0  0  0  0  0  0  0  0  0  0  0
   43.9409   17.6673   15.2623 O   0  0  0  0  0  0  0  0  0  0  0  0
   43.4983   14.0501   16.7177 S   0  0  0  0  0  0  0  0  0  0  0  0
   42.4736   13.0428   15.7309 C   0  0  0  0  0  0  0  0  0  0  0  0
   42.1345   11.6814   16.1187 C   0  0  0  0  0  0  0  0  0  0  0  0
   43.0991   10.8232   16.6550 C   0  0  0  0  0  0  0  0  0  0  0  0
   42.7730    9.5138   17.0059 C   0  0  0  0  0  0  0  0  0  0  0  0
   41.4767    9.0403   16.8075 C   0  0  0  0  0  0  0  0  0  0  0  0
   40.4943    9.8795   16.2662 C   0  0  0  0  0  0  0  0  0  0  0  0
   39.1733    9.4611   16.0229 N   0  0  0  0  0  0  0  0  0  0  0  0
   38.8803    8.0706   15.6816 C   0  0  0  0  0  0  0  0  0  0  0  0
   37.3499    7.8627   15.5714 C   0  0  0  0  0  0  0  0  0  0  0  0
   36.9746    6.4537   15.0726 C   0  0  0  0  0  0  0  0  0  0  0  0
   37.7104    6.1236   13.8434 N   0  0  0  0  0  0  0  0  0  0  0  0
   36.9761    5.2050   12.5892 S   0  0  0  0  0  0  0  0  0  0  0  0
   37.8364    5.3259   11.4042 O   0  0  0  0  0  0  0  0  0  0  0  0
   35.5548    5.5863   12.5166 O   0  0  0  0  0  0  0  0  0  0  0  0
   37.1037    3.4728   13.2183 C   0  0  0  0  0  0  0  0  0  0  0  0
   36.7137    2.5266   12.0998 C   0  0  0  0  0  0  0  0  0  0  0  0
   35.3715    2.1867   11.9063 C   0  0  0  0  0  0  0  0  0  0  0  0
   35.0075    1.3509   10.8514 C   0  0  0  0  0  0  0  0  0  0  0  0
   35.9839    0.8540    9.9894 C   0  0  0  0  0  0  0  0  0  0  0  0
   37.3260    1.1810   10.1830 C   0  0  0  0  0  0  0  0  0  0  0  0
   37.6914    2.0147   11.2396 C   0  0  0  0  0  0  0  0  0  0  0  0
   39.1749    6.2318   13.9220 C   0  0  0  0  0  0  0  0  0  0  0  0
   39.5890    7.6410   14.3716 C   0  0  0  0  0  0  0  0  0  0  0  0
   40.8302   11.1974   15.9487 C   0  0  0  0  0  0  0  0  0  0  0  0
   40.2320   13.3527   13.6591 H   0  0  0  0  0  0  0  0  0  0  0  0
   41.5814   13.7194   12.5317 H   0  0  0  0  0  0  0  0  0  0  0  0
   41.5121   12.1282   13.3622 H   0  0  0  0  0  0  0  0  0  0  0  0
   40.2799   16.2867   14.3669 H   0  0  0  0  0  0  0  0  0  0  0  0
   41.4954   17.5821   14.6333 H   0  0  0  0  0  0  0  0  0  0  0  0
   39.2952   18.6305   11.9759 H   0  0  0  0  0  0  0  0  0  0  0  0
   44.4500   18.3800   15.6303 H   0  0  0  0  0  0  0  0  0  0  0  0
   43.9079   10.7569   15.9124 H   0  0  0  0  0  0  0  0  0  0  0  0
   43.4777   11.3075   17.5672 H   0  0  0  0  0  0  0  0  0  0  0  0
   43.5250    8.8659   17.4316 H   0  0  0  0  0  0  0  0  0  0  0  0
   41.2291    8.0229   17.0721 H   0  0  0  0  0  0  0  0  0  0  0  0
   39.2490    7.4217   16.4897 H   0  0  0  0  0  0  0  0  0  0  0  0
   36.9018    8.0153   16.5643 H   0  0  0  0  0  0  0  0  0  0  0  0
   36.9439    8.6046   14.8680 H   0  0  0  0  0  0  0  0  0  0  0  0
   37.2232    5.7172   15.8509 H   0  0  0  0  0  0  0  0  0  0  0  0
   35.8945    6.4194   14.8670 H   0  0  0  0  0  0  0  0  0  0  0  0
   38.1371    3.2678   13.5347 H   0  0  0  0  0  0  0  0  0  0  0  0
   36.4248    3.3372   14.0731 H   0  0  0  0  0  0  0  0  0  0  0  0
   34.6157    2.5720   12.5747 H   0  0  0  0  0  0  0  0  0  0  0  0
   33.9705    1.0888   10.7023 H   0  0  0  0  0  0  0  0  0  0  0  0
   35.6999    0.2129    9.1679 H   0  0  0  0  0  0  0  0  0  0  0  0
   38.0802    0.7896    9.5164 H   0  0  0  0  0  0  0  0  0  0  0  0
   38.7304    2.2656   11.3941 H   0  0  0  0  0  0  0  0  0  0  0  0
   39.5536    5.4954   14.6461 H   0  0  0  0  0  0  0  0  0  0  0  0
   39.6063    6.0270   12.9311 H   0  0  0  0  0  0  0  0  0  0  0  0
   39.3294    8.3566   13.5775 H   0  0  0  0  0  0  0  0  0  0  0  0
   40.6765    7.6548   14.5364 H   0  0  0  0  0  0  0  0  0  0  0  0
   40.0678   11.8584   15.5636 H   0  0  0  0  0  0  0  0  0  0  0  0
  1  2  1  0  0  0  0
  2 14  2  0  0  0  0
  2  3  1  0  0  0  0
  3  4  1  0  0  0  0
  3  9  2  0  0  0  0
  4  5  1  0  0  0  0
  5  6  1  0  0  0  0
  6  7  2  0  0  0  0
  6  8  1  0  0  0  0
  9 10  1  0  0  0  0
  9 13  1  0  0  0  0
 10 11  2  0  0  0  0
 10 12  1  0  0  0  0
 13 14  1  0  0  0  0
 14 15  1  0  0  0  0
 15 37  2  0  0  0  0
 15 16  1  0  0  0  0
 16 17  1  0  0  0  0
 17 18  2  0  0  0  0
 18 19  1  0  0  0  0
 19 20  2  3  0  0  0
 19 37  1  0  0  0  0
 20 21  1  0  0  0  0
 21 36  1  0  0  0  0
 21 22  1  0  0  0  0
 22 23  1  0  0  0  0
 23 24  1  0  0  0  0
 24 25  1  0  0  0  0
 24 35  1  0  0  0  0
 25 26  2  0  0  0  0
 25 27  2  0  0  0  0
 25 28  1  0  0  0  0
 28 29  1  0  0  0  0
 29 34  2  0  0  0  0
 29 30  1  0  0  0  0
 30 31  2  0  0  0  0
 31 32  1  0  0  0  0
 32 33  2  0  0  0  0
 33 34  1  0  0  0  0
 35 36  1  0  0  0  0
  1 38  1  0  0  0  0
  1 39  1  0  0  0  0
  1 40  1  0  0  0  0
  5 41  1  0  0  0  0
  5 42  1  0  0  0  0
  8 43  1  0  0  0  0
 12 44  1  0  0  0  0
 16 45  1  0  0  0  0
 16 46  1  0  0  0  0
 17 47  1  0  0  0  0
 18 48  1  0  0  0  0
 21 49  1  0  0  0  0
 22 50  1  0  0  0  0
 22 51  1  0  0  0  0
 23 52  1  0  0  0  0
 23 53  1  0  0  0  0
 28 54  1  0  0  0  0
 28 55  1  0  0  0  0
 30 56  1  0  0  0  0
 31 57  1  0  0  0  0
 32 58  1  0  0  0  0
 33 59  1  0  0  0  0
 34 60  1  0  0  0  0
 35 61  1  0  0  0  0
 35 62  1  0  0  0  0
 36 63  1  0  0  0  0
 36 64  1  0  0  0  0
 37 65  1  0  0  0  0
M  END
> <i_m_stars>
2

> <r_user_dG.exp>
-11.0135614094467

$$$$
23485
  -OEChem-05192314073D
 Structure written by MMmdl.
 65 68  0     0  0  0  0  0  0999 V2000
   41.3040   13.2036   13.4628 C   0  0  0  0  0  0  0  0  0  0  0  0
   42.1050   13.7638   14.6029 C   0  0  0  0  0  0  0  0  0  0  0  0
   42.5067   15.0961   14.5535 C   0  0  0  0  0  0  0  0  0  0  0  0
   42.1497   15.9428   13.5632 O   0  0  0  0  0  0  0  0  0  0  0  0
   41.1085   16.8483   13.9109 C   0  0  0  0  0  0  0  0  0  0  0  0
   40.5926   17.5867   12.6738 C   0  0  0  0  0  0  0  0  0  0  0  0
   41.2437   17.4781   11.6105 O   0  0  0  0  0  0  0  0  0  0  0  0
   39.5308   18.2342   12.8065 O   0  0  0  0  0  0  0  0  0  0  0  0
   43.3217   15.4163   15.6304 C   0  0  0  0  0  0  0  0  0  0  0  0
   44.0363   16.6612   16.0003 C   0  0  0  0  0  0  0  0  0  0  0  0
   44.7190   16.6734   17.0477 O   0  0  0  0  0  0  0  0  0  0  0  0
   43.9409   17.6673   15.2623 O   0  0  0  0  0  0  0  0  0  0  0  0
   43.4983   14.0501   16.7177 S   0  0  0  0  0  0  0  0  0  0  0  0
   42.4736   13.0428   15.7309 C   0  0  0  0  0  0  0  0  0  0  0  0
   42.1345   11.6814   16.1187 C   0  0  0  0  0  0  0  0  0  0  0  0
   43.0991   10.8232   16.6550 C   0  0  0  0  0  0  0  0  0  0  0  0
   42.7730    9.5138   17.0059 C   0  0  0  0  0  0  0  0  0  0  0  0
   41.4767    9.0403   16.8075 C   0  0  0  0  0  0  0  0  0  0  0  0
   40.4943    9.8795   16.2662 C   0  0  0  0  0  0  0  0  0  0  0  0
   39.1733    9.4611   16.0229 N   0  0  0  0  0  0  0  0  0  0  0  0
   38.8803    8.0706   15.6816 C   0  0  0  0  0  0  0  0  0  0  0  0
   37.3499    7.8627   15.5714 C   0  0  0  0  0  0  0  0  0  0  0  0
   36.9746    6.4537   15.0726 C   0  0  0  0  0  0  0  0  0  0  0  0
   37.7104    6.1236   13.8434 N   0  0  0  0  0  0  0  0  0  0  0  0
   36.9761    5.2050   12.5892 S   0  0  0  0  0  0  0  0  0  0  0  0
   37.8364    5.3259   11.4042 O   0  0  0  0  0  0  0  0  0  0  0  0
   35.5548    5.5863   12.5166 O   0  0  0  0  0  0  0  0  0  0  0  0
   37.1037    3.4728   13.2183 C   0  0  0  0  0  0  0  0  0  0  0  0
   36.7137    2.5266   12.0998 C   0  0  0  0  0  0  0  0  0  0  0  0
   35.3715    2.1867   11.9063 C   0  0  0  0  0  0  0  0  0  0  0  0
   35.0075    1.3509   10.8514 C   0  0  0  0  0  0  0  0  0  0  0  0
   35.9839    0.8540    9.9894 C   0  0  0  0  0  0  0  0  0  0  0  0
   37.3260    1.1810   10.1830 C   0  0  0  0  0  0  0  0  0  0  0  0
   37.6914    2.0147   11.2396 C   0  0  0  0  0  0  0  0  0  0  0  0
   39.1749    6.2318   13.9220 C   0  0  0  0  0  0  0  0  0  0  0  0
   39.5890    7.6410   14.3716 C   0  0  0  0  0  0  0  0  0  0  0  0
   40.8302   11.1974   15.9487 C   0  0  0  0  0  0  0  0  0  0  0  0
   40.2320   13.3527   13.6591 H   0  0  0  0  0  0  0  0  0  0  0  0
   41.5814   13.7194   12.5317 H   0  0  0  0  0  0  0  0  0  0  0  0
   41.5121   12.1282   13.3622 H   0  0  0  0  0  0  0  0  0  0  0  0
   40.2799   16.2867   14.3669 H   0  0  0  0  0  0  0  0  0  0  0  0
   41.4954   17.5821   14.6333 H   0  0  0  0  0  0  0  0  0  0  0  0
   39.2952   18.6305   11.9759 H   0  0  0  0  0  0  0  0  0  0  0  0
   44.4500   18.3800   15.6303 H   0  0  0  0  0  0  0  0  0  0  0  0
   44.1087   11.1787   16.7992 H   0  0  0  0  0  0  0  0  0  0  0  0
   43.5250    8.8659   17.4316 H   0  0  0  0  0  0  0  0  0  0  0  0
   41.2291    8.0229   17.0721 H   0  0  0  0  0  0  0  0  0  0  0  0
   39.2490    7.4217   16.4897 H   0  0  0  0  0  0  0  0  0  0  0  0
   36.9018    8.0153   16.5643 H   0  0  0  0  0  0  0  0  0  0  0  0
   36.9439    8.6046   14.8680 H   0  0  0  0  0  0  0  0  0  0  0  0
   37.2232    5.7172   15.8509 H   0  0  0  0  0  0  0  0  0  0  0  0
   35.8945    6.4194   14.8670 H   0  0  0  0  0  0  0  0  0  0  0  0
   38.1371    3.2678   13.5347 H   0  0  0  0  0  0  0  0  0  0  0  0
   36.4248    3.3372   14.0731 H   0  0  0  0  0  0  0  0  0  0  0  0
   34.6157    2.5720   12.5747 H   0  0  0  0  0  0  0  0  0  0  0  0
   33.9705    1.0888   10.7023 H   0  0  0  0  0  0  0  0  0  0  0  0
   35.6999    0.2129    9.1679 H   0  0  0  0  0  0  0  0  0  0  0  0
   38.0802    0.7896    9.5164 H   0  0  0  0  0  0  0  0  0  0  0  0
   38.7304    2.2656   11.3941 H   0  0  0  0  0  0  0  0  0  0  0  0
   39.5536    5.4954   14.6461 H   0  0  0  0  0  0  0  0  0  0  0  0
   39.6063    6.0270   12.9311 H   0  0  0  0  0  0  0  0  0  0  0  0
   39.3294    8.3566   13.5775 H   0  0  0  0  0  0  0  0  0  0  0  0
   40.6765    7.6548   14.5364 H   0  0  0  0  0  0  0  0  0  0  0  0
   40.1787   11.8396   16.5595 H   0  0  0  0  0  0  0  0  0  0  0  0
   40.5851   11.3326   14.8849 H   0  0  0  0  0  0  0  0  0  0  0  0
  1  2  1  0  0  0  0
  2 14  2  0  0  0  0
  2  3  1  0  0  0  0
  3  4  1  0  0  0  0
  3  9  2  0  0  0  0
  4  5  1  0  0  0  0
  5  6  1  0  0  0  0
  6  7  2  0  0  0  0
  6  8  1  0  0  0  0
  9 10  1  0  0  0  0
  9 13  1  0  0  0  0
 10 11  2  0  0  0  0
 10 12  1  0  0  0  0
 13 14  1  0  0  0  0
 14 15  1  0  0  0  0
 15 37  1  0  0  0  0
 15 16  2  0  0  0  0
 16 17  1  0  0  0  0
 17 18  2  0  0  0  0
 18 19  1  0  0  0  0
 19 20  2  3  0  0  0
 19 37  1  0  0  0  0
 20 21  1  0  0  0  0
 21 36  1  0  0  0  0
 21 22  1  0  0  0  0
 22 23  1  0  0  0  0
 23 24  1  0  0  0  0
 24 25  1  0  0  0  0
 24 35  1  0  0  0  0
 25 26  2  0  0  0  0
 25 27  2  0  0  0  0
 25 28  1  0  0  0  0
 28 29  1  0  0  0  0
 29 34  2  0  0  0  0
 29 30  1  0  0  0  0
 30 31  2  0  0  0  0
 31 32  1  0  0  0  0
 32 33  2  0  0  0  0
 33 34  1  0  0  0  0
 35 36  1  0  0  0  0
  1 38  1  0  0  0  0
  1 39  1  0  0  0  0
  1 40  1  0  0  0  0
  5 41  1  0  0  0  0
  5 42  1  0  0  0  0
  8 43  1  0  0  0  0
 12 44  1  0  0  0  0
 16 45  1  0  0  0  0
 17 46  1  0  0  0  0
 18 47  1  0  0  0  0
 21 48  1  0  0  0  0
 22 49  1  0  0  0  0
 22 50  1  0  0  0  0
 23 51  1  0  0  0  0
 23 52  1  0  0  0  0
 28 53  1  0  0  0  0
 28 54  1  0  0  0  0
 30 55  1  0  0  0  0
 31 56  1  0  0  0  0
 32 57  1  0  0  0  0
 33 58  1  0  0  0  0
 34 59  1  0  0  0  0
 35 60  1  0  0  0  0
 35 61  1  0  0  0  0
 36 62  1  0  0  0  0
 36 63  1  0  0  0  0
 37 64  1  0  0  0  0
 37 65  1  0  0  0  0
M  END
> <i_m_stars>
2

> <r_user_dG.exp>
-11.0135614094467

$$$$
