23330(2qbq)
  -OEChem-05192314073D
 Structure written by MMmdl.
 59 61  0     0  0  0  0  0  0999 V2000
   43.3233   13.7400   16.9527 S   0  0  0  0  0  0  0  0  0  0  0  0
   43.2030   15.1929   15.9762 C   0  0  0  0  0  0  0  0  0  0  0  0
   42.4447   14.9739   14.8477 C   0  0  0  0  0  0  0  0  0  0  0  0
   41.9770   13.6283   14.7765 C   0  0  0  0  0  0  0  0  0  0  0  0
   42.3482   12.8303   15.8279 C   0  0  0  0  0  0  0  0  0  0  0  0
   43.9057   16.4430   16.4763 C   0  0  0  0  0  0  0  0  0  0  0  0
   44.5237   16.3493   17.5596 O   0  0  0  0  0  0  0  0  0  0  0  0
   43.7737   17.4605   15.7592 O   0  0  0  0  0  0  0  0  0  0  0  0
   42.0535   11.4291   16.1130 C   0  0  0  0  0  0  0  0  0  0  0  0
   40.7754   10.8941   15.8359 C   0  0  0  0  0  0  0  0  0  0  0  0
   40.4853    9.5424   16.1107 C   0  0  0  0  0  0  0  0  0  0  0  0
   41.4762    8.7108   16.6670 C   0  0  0  0  0  0  0  0  0  0  0  0
   42.7530    9.2326   16.9457 C   0  0  0  0  0  0  0  0  0  0  0  0
   43.0383   10.5835   16.6694 C   0  0  0  0  0  0  0  0  0  0  0  0
   40.9483   13.0395   13.2971 Br  0  0  0  0  0  0  0  0  0  0  0  0
   42.2170   15.8802   13.8703 O   0  0  0  0  0  0  0  0  0  0  0  0
   41.2561   16.8862   14.1750 C   0  0  0  0  0  0  0  0  0  0  0  0
   40.9764   17.7598   12.9456 C   0  0  0  0  0  0  0  0  0  0  0  0
   40.0382   17.4490   12.1783 O   0  0  0  0  0  0  0  0  0  0  0  0
   41.7122   18.7575   12.7906 O   0  0  0  0  0  0  0  0  0  0  0  0
   39.1897    9.0765   15.8167 N   0  0  0  0  0  0  0  0  0  0  0  0
   38.9258    7.6726   15.5737 C   0  0  0  0  0  0  0  0  0  0  0  0
   37.4107    7.4354   15.4606 C   0  0  0  0  0  0  0  0  0  0  0  0
   37.0992    5.9646   15.1380 C   0  0  0  0  0  0  0  0  0  0  0  0
   37.8320    5.5053   13.8665 C   0  0  0  0  0  0  0  0  0  0  0  0
   39.3470    5.7425   13.9797 C   0  0  0  0  0  0  0  0  0  0  0  0
   39.6585    7.2133   14.3023 C   0  0  0  0  0  0  0  0  0  0  0  0
   35.5944    5.7760   14.9686 C   0  0  0  0  0  0  0  0  0  0  0  0
   37.5116    5.0835   16.3137 C   0  0  0  0  0  0  0  0  0  0  0  0
   40.0361    5.3373   12.6798 C   0  0  0  0  0  0  0  0  0  0  0  0
   39.9263    4.8450   15.0695 C   0  0  0  0  0  0  0  0  0  0  0  0
   44.2257   18.1928   16.1615 H   0  0  0  0  0  0  0  0  0  0  0  0
   40.0123   11.5279   15.4088 H   0  0  0  0  0  0  0  0  0  0  0  0
   41.2567    7.6749   16.8793 H   0  0  0  0  0  0  0  0  0  0  0  0
   43.5147    8.5965   17.3718 H   0  0  0  0  0  0  0  0  0  0  0  0
   44.0206   10.9771   16.8852 H   0  0  0  0  0  0  0  0  0  0  0  0
   40.3203   16.4059   14.4970 H   0  0  0  0  0  0  0  0  0  0  0  0
   41.6417   17.5194   14.9876 H   0  0  0  0  0  0  0  0  0  0  0  0
   41.4460   19.2297   12.0104 H   0  0  0  0  0  0  0  0  0  0  0  0
   38.6126    9.3423   16.5889 H   0  0  0  0  0  0  0  0  0  0  0  0
   39.3033    7.0798   16.4199 H   0  0  0  0  0  0  0  0  0  0  0  0
   36.9338    7.7018   16.4154 H   0  0  0  0  0  0  0  0  0  0  0  0
   37.0071    8.0715   14.6591 H   0  0  0  0  0  0  0  0  0  0  0  0
   37.6476    4.4316   13.7145 H   0  0  0  0  0  0  0  0  0  0  0  0
   37.4441    6.0695   13.0055 H   0  0  0  0  0  0  0  0  0  0  0  0
   39.3386    7.8411   13.4576 H   0  0  0  0  0  0  0  0  0  0  0  0
   40.7424    7.3255   14.4528 H   0  0  0  0  0  0  0  0  0  0  0  0
   35.3801    4.7220   14.7382 H   0  0  0  0  0  0  0  0  0  0  0  0
   35.0824    6.0590   15.9001 H   0  0  0  0  0  0  0  0  0  0  0  0
   35.2357    6.4114   14.1454 H   0  0  0  0  0  0  0  0  0  0  0  0
   37.2879    4.0320   16.0807 H   0  0  0  0  0  0  0  0  0  0  0  0
   38.5904    5.1970   16.4961 H   0  0  0  0  0  0  0  0  0  0  0  0
   36.9540    5.3865   17.2121 H   0  0  0  0  0  0  0  0  0  0  0  0
   41.1188    5.5099   12.7689 H   0  0  0  0  0  0  0  0  0  0  0  0
   39.8499    4.2712   12.4831 H   0  0  0  0  0  0  0  0  0  0  0  0
   39.6361    5.9386   11.8500 H   0  0  0  0  0  0  0  0  0  0  0  0
   41.0100    5.0163   15.1487 H   0  0  0  0  0  0  0  0  0  0  0  0
   39.4468    5.0800   16.0312 H   0  0  0  0  0  0  0  0  0  0  0  0
   39.7395    3.7914   14.8144 H   0  0  0  0  0  0  0  0  0  0  0  0
  1  2  1  0  0  0  0
  1  5  1  0  0  0  0
  2  3  2  0  0  0  0
  2  6  1  0  0  0  0
  3  4  1  0  0  0  0
  3 16  1  0  0  0  0
  4  5  2  0  0  0  0
  4 15  1  0  0  0  0
  5  9  1  0  0  0  0
  6  7  2  0  0  0  0
  6  8  1  0  0  0  0
  9 10  2  0  0  0  0
  9 14  1  0  0  0  0
 10 11  1  0  0  0  0
 11 12  2  0  0  0  0
 11 21  1  0  0  0  0
 12 13  1  0  0  0  0
 13 14  2  0  0  0  0
 16 17  1  0  0  0  0
 17 18  1  0  0  0  0
 18 19  2  0  0  0  0
 18 20  1  0  0  0  0
 21 22  1  0  0  0  0
 22 23  1  0  0  0  0
 22 27  1  0  0  0  0
 23 24  1  0  0  0  0
 24 25  1  0  0  0  0
 24 28  1  0  0  0  0
 24 29  1  0  0  0  0
 25 26  1  0  0  0  0
 26 27  1  0  0  0  0
 26 30  1  0  0  0  0
 26 31  1  0  0  0  0
  8 32  1  0  0  0  0
 10 33  1  0  0  0  0
 12 34  1  0  0  0  0
 13 35  1  0  0  0  0
 14 36  1  0  0  0  0
 17 37  1  0  0  0  0
 17 38  1  0  0  0  0
 20 39  1  0  0  0  0
 21 40  1  0  0  0  0
 22 41  1  0  0  0  0
 23 42  1  0  0  0  0
 23 43  1  0  0  0  0
 25 44  1  0  0  0  0
 25 45  1  0  0  0  0
 27 46  1  0  0  0  0
 27 47  1  0  0  0  0
 28 48  1  0  0  0  0
 28 49  1  0  0  0  0
 28 50  1  0  0  0  0
 29 51  1  0  0  0  0
 29 52  1  0  0  0  0
 29 53  1  0  0  0  0
 30 54  1  0  0  0  0
 30 55  1  0  0  0  0
 30 56  1  0  0  0  0
 31 57  1  0  0  0  0
 31 58  1  0  0  0  0
 31 59  1  0  0  0  0
M  END
> <i_m_stars>
3

> <r_user_dG.exp>
-10.1250500980544

$$$$
23330(2qbq)
  -OEChem-05192314073D
 Structure written by MMmdl.
 59 61  0     0  0  0  0  0  0999 V2000
   43.3233   13.7400   16.9527 S   0  0  0  0  0  0  0  0  0  0  0  0
   43.2030   15.1929   15.9762 C   0  0  0  0  0  0  0  0  0  0  0  0
   42.4447   14.9739   14.8477 C   0  0  0  0  0  0  0  0  0  0  0  0
   41.9770   13.6283   14.7765 C   0  0  0  0  0  0  0  0  0  0  0  0
   42.3482   12.8303   15.8279 C   0  0  0  0  0  0  0  0  0  0  0  0
   43.9057   16.4430   16.4763 C   0  0  0  0  0  0  0  0  0  0  0  0
   44.5237   16.3493   17.5596 O   0  0  0  0  0  0  0  0  0  0  0  0
   43.7737   17.4605   15.7592 O   0  0  0  0  0  0  0  0  0  0  0  0
   42.0535   11.4291   16.1130 C   0  0  0  0  0  0  0  0  0  0  0  0
   40.7754   10.8941   15.8359 C   0  0  0  0  0  0  0  0  0  0  0  0
   40.4853    9.5424   16.1107 C   0  0  0  0  0  0  0  0  0  0  0  0
   41.4762    8.7108   16.6670 C   0  0  0  0  0  0  0  0  0  0  0  0
   42.7530    9.2326   16.9457 C   0  0  0  0  0  0  0  0  0  0  0  0
   43.0383   10.5835   16.6694 C   0  0  0  0  0  0  0  0  0  0  0  0
   40.9483   13.0395   13.2971 Br  0  0  0  0  0  0  0  0  0  0  0  0
   42.2170   15.8802   13.8703 O   0  0  0  0  0  0  0  0  0  0  0  0
   41.2561   16.8862   14.1750 C   0  0  0  0  0  0  0  0  0  0  0  0
   40.9764   17.7598   12.9456 C   0  0  0  0  0  0  0  0  0  0  0  0
   40.0382   17.4490   12.1783 O   0  0  0  0  0  0  0  0  0  0  0  0
   41.7122   18.7575   12.7906 O   0  0  0  0  0  0  0  0  0  0  0  0
   39.1897    9.0765   15.8167 N   0  0  0  0  0  0  0  0  0  0  0  0
   38.9258    7.6726   15.5737 C   0  0  0  0  0  0  0  0  0  0  0  0
   37.4107    7.4354   15.4606 C   0  0  0  0  0  0  0  0  0  0  0  0
   37.0992    5.9646   15.1380 C   0  0  0  0  0  0  0  0  0  0  0  0
   37.8320    5.5053   13.8665 C   0  0  0  0  0  0  0  0  0  0  0  0
   39.3470    5.7425   13.9797 C   0  0  0  0  0  0  0  0  0  0  0  0
   39.6585    7.2133   14.3023 C   0  0  0  0  0  0  0  0  0  0  0  0
   35.5944    5.7760   14.9686 C   0  0  0  0  0  0  0  0  0  0  0  0
   37.5116    5.0835   16.3137 C   0  0  0  0  0  0  0  0  0  0  0  0
   40.0361    5.3373   12.6798 C   0  0  0  0  0  0  0  0  0  0  0  0
   39.9263    4.8450   15.0695 C   0  0  0  0  0  0  0  0  0  0  0  0
   44.2257   18.1928   16.1615 H   0  0  0  0  0  0  0  0  0  0  0  0
   40.0123   11.5279   15.4088 H   0  0  0  0  0  0  0  0  0  0  0  0
   41.0743    8.3285   17.6169 H   0  0  0  0  0  0  0  0  0  0  0  0
   41.6200    7.8748   15.9667 H   0  0  0  0  0  0  0  0  0  0  0  0
   43.5147    8.5965   17.3718 H   0  0  0  0  0  0  0  0  0  0  0  0
   44.0206   10.9771   16.8852 H   0  0  0  0  0  0  0  0  0  0  0  0
   40.3203   16.4059   14.4970 H   0  0  0  0  0  0  0  0  0  0  0  0
   41.6417   17.5194   14.9876 H   0  0  0  0  0  0  0  0  0  0  0  0
   41.4460   19.2297   12.0104 H   0  0  0  0  0  0  0  0  0  0  0  0
   39.3033    7.0798   16.4199 H   0  0  0  0  0  0  0  0  0  0  0  0
   36.9338    7.7018   16.4154 H   0  0  0  0  0  0  0  0  0  0  0  0
   37.0071    8.0715   14.6591 H   0  0  0  0  0  0  0  0  0  0  0  0
   37.6476    4.4316   13.7145 H   0  0  0  0  0  0  0  0  0  0  0  0
   37.4441    6.0695   13.0055 H   0  0  0  0  0  0  0  0  0  0  0  0
   39.3386    7.8411   13.4576 H   0  0  0  0  0  0  0  0  0  0  0  0
   40.7424    7.3255   14.4528 H   0  0  0  0  0  0  0  0  0  0  0  0
   35.3801    4.7220   14.7382 H   0  0  0  0  0  0  0  0  0  0  0  0
   35.0824    6.0590   15.9001 H   0  0  0  0  0  0  0  0  0  0  0  0
   35.2357    6.4114   14.1454 H   0  0  0  0  0  0  0  0  0  0  0  0
   37.2879    4.0320   16.0807 H   0  0  0  0  0  0  0  0  0  0  0  0
   38.5904    5.1970   16.4961 H   0  0  0  0  0  0  0  0  0  0  0  0
   36.9540    5.3865   17.2121 H   0  0  0  0  0  0  0  0  0  0  0  0
   41.1188    5.5099   12.7689 H   0  0  0  0  0  0  0  0  0  0  0  0
   39.8499    4.2712   12.4831 H   0  0  0  0  0  0  0  0  0  0  0  0
   39.6361    5.9386   11.8500 H   0  0  0  0  0  0  0  0  0  0  0  0
   41.0100    5.0163   15.1487 H   0  0  0  0  0  0  0  0  0  0  0  0
   39.4468    5.0800   16.0312 H   0  0  0  0  0  0  0  0  0  0  0  0
   39.7395    3.7914   14.8144 H   0  0  0  0  0  0  0  0  0  0  0  0
  1  2  1  0  0  0  0
  1  5  1  0  0  0  0
  2  3  2  0  0  0  0
  2  6  1  0  0  0  0
  3  4  1  0  0  0  0
  3 16  1  0  0  0  0
  4  5  2  0  0  0  0
  4 15  1  0  0  0  0
  5  9  1  0  0  0  0
  6  7  2  0  0  0  0
  6  8  1  0  0  0  0
  9 10  2  0  0  0  0
  9 14  1  0  0  0  0
 10 11  1  0  0  0  0
 11 12  1  0  0  0  0
 11 21  2  0  0  0  0
 12 13  1  0  0  0  0
 13 14  2  0  0  0  0
 16 17  1  0  0  0  0
 17 18  1  0  0  0  0
 18 19  2  0  0  0  0
 18 20  1  0  0  0  0
 21 22  1  0  0  0  0
 22 23  1  0  0  0  0
 22 27  1  0  0  0  0
 23 24  1  0  0  0  0
 24 25  1  0  0  0  0
 24 28  1  0  0  0  0
 24 29  1  0  0  0  0
 25 26  1  0  0  0  0
 26 27  1  0  0  0  0
 26 30  1  0  0  0  0
 26 31  1  0  0  0  0
  8 32  1  0  0  0  0
 10 33  1  0  0  0  0
 12 34  1  0  0  0  0
 12 35  1  0  0  0  0
 13 36  1  0  0  0  0
 14 37  1  0  0  0  0
 17 38  1  0  0  0  0
 17 39  1  0  0  0  0
 20 40  1  0  0  0  0
 22 41  1  0  0  0  0
 23 42  1  0  0  0  0
 23 43  1  0  0  0  0
 25 44  1  0  0  0  0
 25 45  1  0  0  0  0
 27 46  1  0  0  0  0
 27 47  1  0  0  0  0
 28 48  1  0  0  0  0
 28 49  1  0  0  0  0
 28 50  1  0  0  0  0
 29 51  1  0  0  0  0
 29 52  1  0  0  0  0
 29 53  1  0  0  0  0
 30 54  1  0  0  0  0
 30 55  1  0  0  0  0
 30 56  1  0  0  0  0
 31 57  1  0  0  0  0
 31 58  1  0  0  0  0
 31 59  1  0  0  0  0
M  END
> <i_m_stars>
3

> <r_user_dG.exp>
-10.1250500980544

$$$$
23330(2qbq)
  -OEChem-05192314073D
 Structure written by MMmdl.
 59 61  0     0  0  0  0  0  0999 V2000
   43.3233   13.7400   16.9527 S   0  0  0  0  0  0  0  0  0  0  0  0
   43.2030   15.1929   15.9762 C   0  0  0  0  0  0  0  0  0  0  0  0
   42.4447   14.9739   14.8477 C   0  0  0  0  0  0  0  0  0  0  0  0
   41.9770   13.6283   14.7765 C   0  0  0  0  0  0  0  0  0  0  0  0
   42.3482   12.8303   15.8279 C   0  0  0  0  0  0  0  0  0  0  0  0
   43.9057   16.4430   16.4763 C   0  0  0  0  0  0  0  0  0  0  0  0
   44.5237   16.3493   17.5596 O   0  0  0  0  0  0  0  0  0  0  0  0
   43.7737   17.4605   15.7592 O   0  0  0  0  0  0  0  0  0  0  0  0
   42.0535   11.4291   16.1130 C   0  0  0  0  0  0  0  0  0  0  0  0
   40.7754   10.8941   15.8359 C   0  0  0  0  0  0  0  0  0  0  0  0
   40.4853    9.5424   16.1107 C   0  0  0  0  0  0  0  0  0  0  0  0
   41.4762    8.7108   16.6670 C   0  0  0  0  0  0  0  0  0  0  0  0
   42.7530    9.2326   16.9457 C   0  0  0  0  0  0  0  0  0  0  0  0
   43.0383   10.5835   16.6694 C   0  0  0  0  0  0  0  0  0  0  0  0
   40.9483   13.0395   13.2971 Br  0  0  0  0  0  0  0  0  0  0  0  0
   42.2170   15.8802   13.8703 O   0  0  0  0  0  0  0  0  0  0  0  0
   41.2561   16.8862   14.1750 C   0  0  0  0  0  0  0  0  0  0  0  0
   40.9764   17.7598   12.9456 C   0  0  0  0  0  0  0  0  0  0  0  0
   40.0382   17.4490   12.1783 O   0  0  0  0  0  0  0  0  0  0  0  0
   41.7122   18.7575   12.7906 O   0  0  0  0  0  0  0  0  0  0  0  0
   39.1897    9.0765   15.8167 N   0  0  0  0  0  0  0  0  0  0  0  0
   38.9258    7.6726   15.5737 C   0  0  0  0  0  0  0  0  0  0  0  0
   37.4107    7.4354   15.4606 C   0  0  0  0  0  0  0  0  0  0  0  0
   37.0992    5.9646   15.1380 C   0  0  0  0  0  0  0  0  0  0  0  0
   37.8320    5.5053   13.8665 C   0  0  0  0  0  0  0  0  0  0  0  0
   39.3470    5.7425   13.9797 C   0  0  0  0  0  0  0  0  0  0  0  0
   39.6585    7.2133   14.3023 C   0  0  0  0  0  0  0  0  0  0  0  0
   35.5944    5.7760   14.9686 C   0  0  0  0  0  0  0  0  0  0  0  0
   37.5116    5.0835   16.3137 C   0  0  0  0  0  0  0  0  0  0  0  0
   40.0361    5.3373   12.6798 C   0  0  0  0  0  0  0  0  0  0  0  0
   39.9263    4.8450   15.0695 C   0  0  0  0  0  0  0  0  0  0  0  0
   44.2257   18.1928   16.1615 H   0  0  0  0  0  0  0  0  0  0  0  0
   40.0123   11.5279   15.4088 H   0  0  0  0  0  0  0  0  0  0  0  0
   41.2567    7.6749   16.8793 H   0  0  0  0  0  0  0  0  0  0  0  0
   43.5147    8.5965   17.3718 H   0  0  0  0  0  0  0  0  0  0  0  0
   43.8880   10.5887   15.9708 H   0  0  0  0  0  0  0  0  0  0  0  0
   43.3438   11.0413   17.6218 H   0  0  0  0  0  0  0  0  0  0  0  0
   40.3203   16.4059   14.4970 H   0  0  0  0  0  0  0  0  0  0  0  0
   41.6417   17.5194   14.9876 H   0  0  0  0  0  0  0  0  0  0  0  0
   41.4460   19.2297   12.0104 H   0  0  0  0  0  0  0  0  0  0  0  0
   39.3033    7.0798   16.4199 H   0  0  0  0  0  0  0  0  0  0  0  0
   36.9338    7.7018   16.4154 H   0  0  0  0  0  0  0  0  0  0  0  0
   37.0071    8.0715   14.6591 H   0  0  0  0  0  0  0  0  0  0  0  0
   37.6476    4.4316   13.7145 H   0  0  0  0  0  0  0  0  0  0  0  0
   37.4441    6.0695   13.0055 H   0  0  0  0  0  0  0  0  0  0  0  0
   39.3386    7.8411   13.4576 H   0  0  0  0  0  0  0  0  0  0  0  0
   40.7424    7.3255   14.4528 H   0  0  0  0  0  0  0  0  0  0  0  0
   35.3801    4.7220   14.7382 H   0  0  0  0  0  0  0  0  0  0  0  0
   35.0824    6.0590   15.9001 H   0  0  0  0  0  0  0  0  0  0  0  0
   35.2357    6.4114   14.1454 H   0  0  0  0  0  0  0  0  0  0  0  0
   37.2879    4.0320   16.0807 H   0  0  0  0  0  0  0  0  0  0  0  0
   38.5904    5.1970   16.4961 H   0  0  0  0  0  0  0  0  0  0  0  0
   36.9540    5.3865   17.2121 H   0  0  0  0  0  0  0  0  0  0  0  0
   41.1188    5.5099   12.7689 H   0  0  0  0  0  0  0  0  0  0  0  0
   39.8499    4.2712   12.4831 H   0  0  0  0  0  0  0  0  0  0  0  0
   39.6361    5.9386   11.8500 H   0  0  0  0  0  0  0  0  0  0  0  0
   41.0100    5.0163   15.1487 H   0  0  0  0  0  0  0  0  0  0  0  0
   39.4468    5.0800   16.0312 H   0  0  0  0  0  0  0  0  0  0  0  0
   39.7395    3.7914   14.8144 H   0  0  0  0  0  0  0  0  0  0  0  0
  1  2  1  0  0  0  0
  1  5  1  0  0  0  0
  2  3  2  0  0  0  0
  2  6  1  0  0  0  0
  3  4  1  0  0  0  0
  3 16  1  0  0  0  0
  4  5  2  0  0  0  0
  4 15  1  0  0  0  0
  5  9  1  0  0  0  0
  6  7  2  0  0  0  0
  6  8  1  0  0  0  0
  9 10  2  0  0  0  0
  9 14  1  0  0  0  0
 10 11  1  0  0  0  0
 11 12  1  0  0  0  0
 11 21  2  0  0  0  0
 12 13  2  0  0  0  0
 13 14  1  0  0  0  0
 16 17  1  0  0  0  0
 17 18  1  0  0  0  0
 18 19  2  0  0  0  0
 18 20  1  0  0  0  0
 21 22  1  0  0  0  0
 22 23  1  0  0  0  0
 22 27  1  0  0  0  0
 23 24  1  0  0  0  0
 24 25  1  0  0  0  0
 24 28  1  0  0  0  0
 24 29  1  0  0  0  0
 25 26  1  0  0  0  0
 26 27  1  0  0  0  0
 26 30  1  0  0  0  0
 26 31  1  0  0  0  0
  8 32  1  0  0  0  0
 10 33  1  0  0  0  0
 12 34  1  0  0  0  0
 13 35  1  0  0  0  0
 14 36  1  0  0  0  0
 14 37  1  0  0  0  0
 17 38  1  0  0  0  0
 17 39  1  0  0  0  0
 20 40  1  0  0  0  0
 22 41  1  0  0  0  0
 23 42  1  0  0  0  0
 23 43  1  0  0  0  0
 25 44  1  0  0  0  0
 25 45  1  0  0  0  0
 27 46  1  0  0  0  0
 27 47  1  0  0  0  0
 28 48  1  0  0  0  0
 28 49  1  0  0  0  0
 28 50  1  0  0  0  0
 29 51  1  0  0  0  0
 29 52  1  0  0  0  0
 29 53  1  0  0  0  0
 30 54  1  0  0  0  0
 30 55  1  0  0  0  0
 30 56  1  0  0  0  0
 31 57  1  0  0  0  0
 31 58  1  0  0  0  0
 31 59  1  0  0  0  0
M  END
> <i_m_stars>
3

> <r_user_dG.exp>
-10.1250500980544

$$$$
23330(2qbq)
  -OEChem-05192314073D
 Structure written by MMmdl.
 59 61  0     0  0  0  0  0  0999 V2000
   43.3233   13.7400   16.9527 S   0  0  0  0  0  0  0  0  0  0  0  0
   43.2030   15.1929   15.9762 C   0  0  0  0  0  0  0  0  0  0  0  0
   42.4447   14.9739   14.8477 C   0  0  0  0  0  0  0  0  0  0  0  0
   41.9770   13.6283   14.7765 C   0  0  0  0  0  0  0  0  0  0  0  0
   42.3482   12.8303   15.8279 C   0  0  0  0  0  0  0  0  0  0  0  0
   43.9057   16.4430   16.4763 C   0  0  0  0  0  0  0  0  0  0  0  0
   44.5237   16.3493   17.5596 O   0  0  0  0  0  0  0  0  0  0  0  0
   43.7737   17.4605   15.7592 O   0  0  0  0  0  0  0  0  0  0  0  0
   42.0535   11.4291   16.1130 C   0  0  0  0  0  0  0  0  0  0  0  0
   40.7754   10.8941   15.8359 C   0  0  0  0  0  0  0  0  0  0  0  0
   40.4853    9.5424   16.1107 C   0  0  0  0  0  0  0  0  0  0  0  0
   41.4762    8.7108   16.6670 C   0  0  0  0  0  0  0  0  0  0  0  0
   42.7530    9.2326   16.9457 C   0  0  0  0  0  0  0  0  0  0  0  0
   43.0383   10.5835   16.6694 C   0  0  0  0  0  0  0  0  0  0  0  0
   40.9483   13.0395   13.2971 Br  0  0  0  0  0  0  0  0  0  0  0  0
   42.2170   15.8802   13.8703 O   0  0  0  0  0  0  0  0  0  0  0  0
   41.2561   16.8862   14.1750 C   0  0  0  0  0  0  0  0  0  0  0  0
   40.9764   17.7598   12.9456 C   0  0  0  0  0  0  0  0  0  0  0  0
   40.0382   17.4490   12.1783 O   0  0  0  0  0  0  0  0  0  0  0  0
   41.7122   18.7575   12.7906 O   0  0  0  0  0  0  0  0  0  0  0  0
   39.1897    9.0765   15.8167 N   0  0  0  0  0  0  0  0  0  0  0  0
   38.9258    7.6726   15.5737 C   0  0  0  0  0  0  0  0  0  0  0  0
   37.4107    7.4354   15.4606 C   0  0  0  0  0  0  0  0  0  0  0  0
   37.0992    5.9646   15.1380 C   0  0  0  0  0  0  0  0  0  0  0  0
   37.8320    5.5053   13.8665 C   0  0  0  0  0  0  0  0  0  0  0  0
   39.3470    5.7425   13.9797 C   0  0  0  0  0  0  0  0  0  0  0  0
   39.6585    7.2133   14.3023 C   0  0  0  0  0  0  0  0  0  0  0  0
   35.5944    5.7760   14.9686 C   0  0  0  0  0  0  0  0  0  0  0  0
   37.5116    5.0835   16.3137 C   0  0  0  0  0  0  0  0  0  0  0  0
   40.0361    5.3373   12.6798 C   0  0  0  0  0  0  0  0  0  0  0  0
   39.9263    4.8450   15.0695 C   0  0  0  0  0  0  0  0  0  0  0  0
   44.2257   18.1928   16.1615 H   0  0  0  0  0  0  0  0  0  0  0  0
   40.0530   11.4932   16.4097 H   0  0  0  0  0  0  0  0  0  0  0  0
   40.6003   11.0404   14.7598 H   0  0  0  0  0  0  0  0  0  0  0  0
   41.2567    7.6749   16.8793 H   0  0  0  0  0  0  0  0  0  0  0  0
   43.5147    8.5965   17.3718 H   0  0  0  0  0  0  0  0  0  0  0  0
   44.0206   10.9771   16.8852 H   0  0  0  0  0  0  0  0  0  0  0  0
   40.3203   16.4059   14.4970 H   0  0  0  0  0  0  0  0  0  0  0  0
   41.6417   17.5194   14.9876 H   0  0  0  0  0  0  0  0  0  0  0  0
   41.4460   19.2297   12.0104 H   0  0  0  0  0  0  0  0  0  0  0  0
   39.3033    7.0798   16.4199 H   0  0  0  0  0  0  0  0  0  0  0  0
   36.9338    7.7018   16.4154 H   0  0  0  0  0  0  0  0  0  0  0  0
   37.0071    8.0715   14.6591 H   0  0  0  0  0  0  0  0  0  0  0  0
   37.6476    4.4316   13.7145 H   0  0  0  0  0  0  0  0  0  0  0  0
   37.4441    6.0695   13.0055 H   0  0  0  0  0  0  0  0  0  0  0  0
   39.3386    7.8411   13.4576 H   0  0  0  0  0  0  0  0  0  0  0  0
   40.7424    7.3255   14.4528 H   0  0  0  0  0  0  0  0  0  0  0  0
   35.3801    4.7220   14.7382 H   0  0  0  0  0  0  0  0  0  0  0  0
   35.0824    6.0590   15.9001 H   0  0  0  0  0  0  0  0  0  0  0  0
   35.2357    6.4114   14.1454 H   0  0  0  0  0  0  0  0  0  0  0  0
   37.2879    4.0320   16.0807 H   0  0  0  0  0  0  0  0  0  0  0  0
   38.5904    5.1970   16.4961 H   0  0  0  0  0  0  0  0  0  0  0  0
   36.9540    5.3865   17.2121 H   0  0  0  0  0  0  0  0  0  0  0  0
   41.1188    5.5099   12.7689 H   0  0  0  0  0  0  0  0  0  0  0  0
   39.8499    4.2712   12.4831 H   0  0  0  0  0  0  0  0  0  0  0  0
   39.6361    5.9386   11.8500 H   0  0  0  0  0  0  0  0  0  0  0  0
   41.0100    5.0163   15.1487 H   0  0  0  0  0  0  0  0  0  0  0  0
   39.4468    5.0800   16.0312 H   0  0  0  0  0  0  0  0  0  0  0  0
   39.7395    3.7914   14.8144 H   0  0  0  0  0  0  0  0  0  0  0  0
  1  2  1  0  0  0  0
  1  5  1  0  0  0  0
  2  3  2  0  0  0  0
  2  6  1  0  0  0  0
  3  4  1  0  0  0  0
  3 16  1  0  0  0  0
  4  5  2  0  0  0  0
  4 15  1  0  0  0  0
  5  9  1  0  0  0  0
  6  7  2  0  0  0  0
  6  8  1  0  0  0  0
  9 10  1  0  0  0  0
  9 14  2  0  0  0  0
 10 11  1  0  0  0  0
 11 12  1  0  0  0  0
 11 21  2  0  0  0  0
 12 13  2  0  0  0  0
 13 14  1  0  0  0  0
 16 17  1  0  0  0  0
 17 18  1  0  0  0  0
 18 19  2  0  0  0  0
 18 20  1  0  0  0  0
 21 22  1  0  0  0  0
 22 23  1  0  0  0  0
 22 27  1  0  0  0  0
 23 24  1  0  0  0  0
 24 25  1  0  0  0  0
 24 28  1  0  0  0  0
 24 29  1  0  0  0  0
 25 26  1  0  0  0  0
 26 27  1  0  0  0  0
 26 30  1  0  0  0  0
 26 31  1  0  0  0  0
  8 32  1  0  0  0  0
 10 33  1  0  0  0  0
 10 34  1  0  0  0  0
 12 35  1  0  0  0  0
 13 36  1  0  0  0  0
 14 37  1  0  0  0  0
 17 38  1  0  0  0  0
 17 39  1  0  0  0  0
 20 40  1  0  0  0  0
 22 41  1  0  0  0  0
 23 42  1  0  0  0  0
 23 43  1  0  0  0  0
 25 44  1  0  0  0  0
 25 45  1  0  0  0  0
 27 46  1  0  0  0  0
 27 47  1  0  0  0  0
 28 48  1  0  0  0  0
 28 49  1  0  0  0  0
 28 50  1  0  0  0  0
 29 51  1  0  0  0  0
 29 52  1  0  0  0  0
 29 53  1  0  0  0  0
 30 54  1  0  0  0  0
 30 55  1  0  0  0  0
 30 56  1  0  0  0  0
 31 57  1  0  0  0  0
 31 58  1  0  0  0  0
 31 59  1  0  0  0  0
M  END
> <i_m_stars>
3

> <r_user_dG.exp>
-10.1250500980544

$$$$
