23466
  -OEChem-05162309453D
 Structure written by MMmdl.
 31 32  0     0  0  0  0  0  0999 V2000
   39.2136    9.0772   15.8610 N   0  0  0  0  0  0  0  0  0  0  0  0
   40.4829    9.5699   16.1594 C   0  0  0  0  0  0  0  0  0  0  0  0
   41.4815    8.7321   16.6725 C   0  0  0  0  0  0  0  0  0  0  0  0
   42.7506    9.2417   16.9424 C   0  0  0  0  0  0  0  0  0  0  0  0
   43.0417   10.5800   16.6715 C   0  0  0  0  0  0  0  0  0  0  0  0
   42.0577   11.4350   16.1601 C   0  0  0  0  0  0  0  0  0  0  0  0
   42.3473   12.8247   15.8292 C   0  0  0  0  0  0  0  0  0  0  0  0
   43.4366   13.7822   16.8006 S   0  0  0  0  0  0  0  0  0  0  0  0
   43.2082   15.1991   15.7938 C   0  0  0  0  0  0  0  0  0  0  0  0
   43.9543   16.4193   16.1786 C   0  0  0  0  0  0  0  0  0  0  0  0
   43.8122   17.4512   15.4873 O   0  0  0  0  0  0  0  0  0  0  0  0
   44.7036   16.3893   17.1807 O   0  0  0  0  0  0  0  0  0  0  0  0
   42.3248   14.9326   14.7526 C   0  0  0  0  0  0  0  0  0  0  0  0
   41.9652   15.8350   13.8147 O   0  0  0  0  0  0  0  0  0  0  0  0
   40.7723   16.5454   14.1198 C   0  0  0  0  0  0  0  0  0  0  0  0
   40.4157   17.5289   13.0030 C   0  0  0  0  0  0  0  0  0  0  0  0
   39.4252   18.2758   13.1672 O   0  0  0  0  0  0  0  0  0  0  0  0
   41.1620   17.5310   11.9993 O   0  0  0  0  0  0  0  0  0  0  0  0
   41.8775   13.6145   14.7795 C   0  0  0  0  0  0  0  0  0  0  0  0
   40.7114   12.9632   13.4193 Br  0  0  0  0  0  0  0  0  0  0  0  0
   40.7764   10.9164   15.9496 C   0  0  0  0  0  0  0  0  0  0  0  0
   39.1771    8.1000   16.0703 H   0  0  0  0  0  0  0  0  0  0  0  0
   38.5311    9.5610   16.4089 H   0  0  0  0  0  0  0  0  0  0  0  0
   41.2679    7.6900   16.8592 H   0  0  0  0  0  0  0  0  0  0  0  0
   43.5107    8.5995   17.3622 H   0  0  0  0  0  0  0  0  0  0  0  0
   44.0354   10.9595   16.8582 H   0  0  0  0  0  0  0  0  0  0  0  0
   45.1089   17.2403   17.2992 H   0  0  0  0  0  0  0  0  0  0  0  0
   39.9481   15.8274   14.2429 H   0  0  0  0  0  0  0  0  0  0  0  0
   40.9160   17.1029   15.0571 H   0  0  0  0  0  0  0  0  0  0  0  0
   40.8607   18.1868   11.3815 H   0  0  0  0  0  0  0  0  0  0  0  0
   39.9914   11.5782   15.6148 H   0  0  0  0  0  0  0  0  0  0  0  0
  1  2  1  0  0  0  0
  2 21  2  0  0  0  0
  2  3  1  0  0  0  0
  3  4  2  0  0  0  0
  4  5  1  0  0  0  0
  5  6  2  0  0  0  0
  6  7  1  0  0  0  0
  6 21  1  0  0  0  0
  7 19  2  0  0  0  0
  7  8  1  0  0  0  0
  8  9  1  0  0  0  0
  9 10  1  0  0  0  0
  9 13  2  0  0  0  0
 10 11  2  0  0  0  0
 10 12  1  0  0  0  0
 13 14  1  0  0  0  0
 13 19  1  0  0  0  0
 14 15  1  0  0  0  0
 15 16  1  0  0  0  0
 16 17  2  0  0  0  0
 16 18  1  0  0  0  0
 19 20  1  0  0  0  0
  1 22  1  0  0  0  0
  1 23  1  0  0  0  0
  3 24  1  0  0  0  0
  4 25  1  0  0  0  0
  5 26  1  0  0  0  0
 12 27  1  0  0  0  0
 15 28  1  0  0  0  0
 15 29  1  0  0  0  0
 18 30  1  0  0  0  0
 21 31  1  0  0  0  0
M  END
> <i_m_stars>
2

> <r_user_dG.exp>
-7.84784627805605

$$$$
23466
  -OEChem-05162309453D
 Structure written by MMmdl.
 31 32  0     0  0  0  0  0  0999 V2000
   39.2136    9.0772   15.8610 N   0  0  0  0  0  0  0  0  0  0  0  0
   40.4829    9.5699   16.1594 C   0  0  0  0  0  0  0  0  0  0  0  0
   41.4815    8.7321   16.6725 C   0  0  0  0  0  0  0  0  0  0  0  0
   42.7506    9.2417   16.9424 C   0  0  0  0  0  0  0  0  0  0  0  0
   43.0417   10.5800   16.6715 C   0  0  0  0  0  0  0  0  0  0  0  0
   42.0577   11.4350   16.1601 C   0  0  0  0  0  0  0  0  0  0  0  0
   42.3473   12.8247   15.8292 C   0  0  0  0  0  0  0  0  0  0  0  0
   43.4366   13.7822   16.8006 S   0  0  0  0  0  0  0  0  0  0  0  0
   43.2082   15.1991   15.7938 C   0  0  0  0  0  0  0  0  0  0  0  0
   43.9543   16.4193   16.1786 C   0  0  0  0  0  0  0  0  0  0  0  0
   43.8122   17.4512   15.4873 O   0  0  0  0  0  0  0  0  0  0  0  0
   44.7036   16.3893   17.1807 O   0  0  0  0  0  0  0  0  0  0  0  0
   42.3248   14.9326   14.7526 C   0  0  0  0  0  0  0  0  0  0  0  0
   41.9652   15.8350   13.8147 O   0  0  0  0  0  0  0  0  0  0  0  0
   40.7723   16.5454   14.1198 C   0  0  0  0  0  0  0  0  0  0  0  0
   40.4157   17.5289   13.0030 C   0  0  0  0  0  0  0  0  0  0  0  0
   39.4252   18.2758   13.1672 O   0  0  0  0  0  0  0  0  0  0  0  0
   41.1620   17.5310   11.9993 O   0  0  0  0  0  0  0  0  0  0  0  0
   41.8775   13.6145   14.7795 C   0  0  0  0  0  0  0  0  0  0  0  0
   40.7114   12.9632   13.4193 Br  0  0  0  0  0  0  0  0  0  0  0  0
   40.7764   10.9164   15.9496 C   0  0  0  0  0  0  0  0  0  0  0  0
   39.1354    8.0999   16.0577 H   0  0  0  0  0  0  0  0  0  0  0  0
   41.0967    8.3222   17.6180 H   0  0  0  0  0  0  0  0  0  0  0  0
   41.6150    7.9165   15.9466 H   0  0  0  0  0  0  0  0  0  0  0  0
   43.5107    8.5995   17.3622 H   0  0  0  0  0  0  0  0  0  0  0  0
   44.0354   10.9595   16.8582 H   0  0  0  0  0  0  0  0  0  0  0  0
   45.1089   17.2403   17.2992 H   0  0  0  0  0  0  0  0  0  0  0  0
   39.9481   15.8274   14.2429 H   0  0  0  0  0  0  0  0  0  0  0  0
   40.9160   17.1029   15.0571 H   0  0  0  0  0  0  0  0  0  0  0  0
   40.8607   18.1868   11.3815 H   0  0  0  0  0  0  0  0  0  0  0  0
   39.9914   11.5782   15.6148 H   0  0  0  0  0  0  0  0  0  0  0  0
  1  2  2  0  0  0  0
  2 21  1  0  0  0  0
  2  3  1  0  0  0  0
  3  4  1  0  0  0  0
  4  5  2  0  0  0  0
  5  6  1  0  0  0  0
  6  7  1  0  0  0  0
  6 21  2  0  0  0  0
  7 19  2  0  0  0  0
  7  8  1  0  0  0  0
  8  9  1  0  0  0  0
  9 10  1  0  0  0  0
  9 13  2  0  0  0  0
 10 11  2  0  0  0  0
 10 12  1  0  0  0  0
 13 14  1  0  0  0  0
 13 19  1  0  0  0  0
 14 15  1  0  0  0  0
 15 16  1  0  0  0  0
 16 17  2  0  0  0  0
 16 18  1  0  0  0  0
 19 20  1  0  0  0  0
  1 22  1  0  0  0  0
  3 23  1  0  0  0  0
  3 24  1  0  0  0  0
  4 25  1  0  0  0  0
  5 26  1  0  0  0  0
 12 27  1  0  0  0  0
 15 28  1  0  0  0  0
 15 29  1  0  0  0  0
 18 30  1  0  0  0  0
 21 31  1  0  0  0  0
M  END
> <i_m_stars>
2

> <r_user_dG.exp>
-7.84784627805605

$$$$
23466
  -OEChem-05162309453D
 Structure written by MMmdl.
 31 32  0     0  0  0  0  0  0999 V2000
   39.2136    9.0772   15.8610 N   0  0  0  0  0  0  0  0  0  0  0  0
   40.4829    9.5699   16.1594 C   0  0  0  0  0  0  0  0  0  0  0  0
   41.4815    8.7321   16.6725 C   0  0  0  0  0  0  0  0  0  0  0  0
   42.7506    9.2417   16.9424 C   0  0  0  0  0  0  0  0  0  0  0  0
   43.0417   10.5800   16.6715 C   0  0  0  0  0  0  0  0  0  0  0  0
   42.0577   11.4350   16.1601 C   0  0  0  0  0  0  0  0  0  0  0  0
   42.3473   12.8247   15.8292 C   0  0  0  0  0  0  0  0  0  0  0  0
   43.4366   13.7822   16.8006 S   0  0  0  0  0  0  0  0  0  0  0  0
   43.2082   15.1991   15.7938 C   0  0  0  0  0  0  0  0  0  0  0  0
   43.9543   16.4193   16.1786 C   0  0  0  0  0  0  0  0  0  0  0  0
   43.8122   17.4512   15.4873 O   0  0  0  0  0  0  0  0  0  0  0  0
   44.7036   16.3893   17.1807 O   0  0  0  0  0  0  0  0  0  0  0  0
   42.3248   14.9326   14.7526 C   0  0  0  0  0  0  0  0  0  0  0  0
   41.9652   15.8350   13.8147 O   0  0  0  0  0  0  0  0  0  0  0  0
   40.7723   16.5454   14.1198 C   0  0  0  0  0  0  0  0  0  0  0  0
   40.4157   17.5289   13.0030 C   0  0  0  0  0  0  0  0  0  0  0  0
   39.4252   18.2758   13.1672 O   0  0  0  0  0  0  0  0  0  0  0  0
   41.1620   17.5310   11.9993 O   0  0  0  0  0  0  0  0  0  0  0  0
   41.8775   13.6145   14.7795 C   0  0  0  0  0  0  0  0  0  0  0  0
   40.7114   12.9632   13.4193 Br  0  0  0  0  0  0  0  0  0  0  0  0
   40.7764   10.9164   15.9496 C   0  0  0  0  0  0  0  0  0  0  0  0
   39.1354    8.0999   16.0577 H   0  0  0  0  0  0  0  0  0  0  0  0
   41.2679    7.6900   16.8592 H   0  0  0  0  0  0  0  0  0  0  0  0
   43.5107    8.5995   17.3622 H   0  0  0  0  0  0  0  0  0  0  0  0
   43.3843   11.0250   17.6173 H   0  0  0  0  0  0  0  0  0  0  0  0
   43.8678   10.5813   15.9452 H   0  0  0  0  0  0  0  0  0  0  0  0
   45.1089   17.2403   17.2992 H   0  0  0  0  0  0  0  0  0  0  0  0
   39.9481   15.8274   14.2429 H   0  0  0  0  0  0  0  0  0  0  0  0
   40.9160   17.1029   15.0571 H   0  0  0  0  0  0  0  0  0  0  0  0
   40.8607   18.1868   11.3815 H   0  0  0  0  0  0  0  0  0  0  0  0
   39.9914   11.5782   15.6148 H   0  0  0  0  0  0  0  0  0  0  0  0
  1  2  2  0  0  0  0
  2 21  1  0  0  0  0
  2  3  1  0  0  0  0
  3  4  2  0  0  0  0
  4  5  1  0  0  0  0
  5  6  1  0  0  0  0
  6  7  1  0  0  0  0
  6 21  2  0  0  0  0
  7 19  2  0  0  0  0
  7  8  1  0  0  0  0
  8  9  1  0  0  0  0
  9 10  1  0  0  0  0
  9 13  2  0  0  0  0
 10 11  2  0  0  0  0
 10 12  1  0  0  0  0
 13 14  1  0  0  0  0
 13 19  1  0  0  0  0
 14 15  1  0  0  0  0
 15 16  1  0  0  0  0
 16 17  2  0  0  0  0
 16 18  1  0  0  0  0
 19 20  1  0  0  0  0
  1 22  1  0  0  0  0
  3 23  1  0  0  0  0
  4 24  1  0  0  0  0
  5 25  1  0  0  0  0
  5 26  1  0  0  0  0
 12 27  1  0  0  0  0
 15 28  1  0  0  0  0
 15 29  1  0  0  0  0
 18 30  1  0  0  0  0
 21 31  1  0  0  0  0
M  END
> <i_m_stars>
2

> <r_user_dG.exp>
-7.84784627805605

$$$$
23466
  -OEChem-05162309453D
 Structure written by MMmdl.
 31 32  0     0  0  0  0  0  0999 V2000
   39.2136    9.0772   15.8610 N   0  0  0  0  0  0  0  0  0  0  0  0
   40.4829    9.5699   16.1594 C   0  0  0  0  0  0  0  0  0  0  0  0
   41.4815    8.7321   16.6725 C   0  0  0  0  0  0  0  0  0  0  0  0
   42.7506    9.2417   16.9424 C   0  0  0  0  0  0  0  0  0  0  0  0
   43.0417   10.5800   16.6715 C   0  0  0  0  0  0  0  0  0  0  0  0
   42.0577   11.4350   16.1601 C   0  0  0  0  0  0  0  0  0  0  0  0
   42.3473   12.8247   15.8292 C   0  0  0  0  0  0  0  0  0  0  0  0
   43.4366   13.7822   16.8006 S   0  0  0  0  0  0  0  0  0  0  0  0
   43.2082   15.1991   15.7938 C   0  0  0  0  0  0  0  0  0  0  0  0
   43.9543   16.4193   16.1786 C   0  0  0  0  0  0  0  0  0  0  0  0
   43.8122   17.4512   15.4873 O   0  0  0  0  0  0  0  0  0  0  0  0
   44.7036   16.3893   17.1807 O   0  0  0  0  0  0  0  0  0  0  0  0
   42.3248   14.9326   14.7526 C   0  0  0  0  0  0  0  0  0  0  0  0
   41.9652   15.8350   13.8147 O   0  0  0  0  0  0  0  0  0  0  0  0
   40.7723   16.5454   14.1198 C   0  0  0  0  0  0  0  0  0  0  0  0
   40.4157   17.5289   13.0030 C   0  0  0  0  0  0  0  0  0  0  0  0
   39.4252   18.2758   13.1672 O   0  0  0  0  0  0  0  0  0  0  0  0
   41.1620   17.5310   11.9993 O   0  0  0  0  0  0  0  0  0  0  0  0
   41.8775   13.6145   14.7795 C   0  0  0  0  0  0  0  0  0  0  0  0
   40.7114   12.9632   13.4193 Br  0  0  0  0  0  0  0  0  0  0  0  0
   40.7764   10.9164   15.9496 C   0  0  0  0  0  0  0  0  0  0  0  0
   39.1354    8.0999   16.0577 H   0  0  0  0  0  0  0  0  0  0  0  0
   41.2679    7.6900   16.8592 H   0  0  0  0  0  0  0  0  0  0  0  0
   43.5107    8.5995   17.3622 H   0  0  0  0  0  0  0  0  0  0  0  0
   44.0354   10.9595   16.8582 H   0  0  0  0  0  0  0  0  0  0  0  0
   45.1089   17.2403   17.2992 H   0  0  0  0  0  0  0  0  0  0  0  0
   39.9481   15.8274   14.2429 H   0  0  0  0  0  0  0  0  0  0  0  0
   40.9160   17.1029   15.0571 H   0  0  0  0  0  0  0  0  0  0  0  0
   40.8607   18.1868   11.3815 H   0  0  0  0  0  0  0  0  0  0  0  0
   40.5277   11.1261   14.8988 H   0  0  0  0  0  0  0  0  0  0  0  0
   40.1018   11.4850   16.6066 H   0  0  0  0  0  0  0  0  0  0  0  0
  1  2  2  0  0  0  0
  2 21  1  0  0  0  0
  2  3  1  0  0  0  0
  3  4  2  0  0  0  0
  4  5  1  0  0  0  0
  5  6  2  0  0  0  0
  6  7  1  0  0  0  0
  6 21  1  0  0  0  0
  7 19  2  0  0  0  0
  7  8  1  0  0  0  0
  8  9  1  0  0  0  0
  9 10  1  0  0  0  0
  9 13  2  0  0  0  0
 10 11  2  0  0  0  0
 10 12  1  0  0  0  0
 13 14  1  0  0  0  0
 13 19  1  0  0  0  0
 14 15  1  0  0  0  0
 15 16  1  0  0  0  0
 16 17  2  0  0  0  0
 16 18  1  0  0  0  0
 19 20  1  0  0  0  0
  1 22  1  0  0  0  0
  3 23  1  0  0  0  0
  4 24  1  0  0  0  0
  5 25  1  0  0  0  0
 12 26  1  0  0  0  0
 15 27  1  0  0  0  0
 15 28  1  0  0  0  0
 18 29  1  0  0  0  0
 21 30  1  0  0  0  0
 21 31  1  0  0  0  0
M  END
> <i_m_stars>
2

> <r_user_dG.exp>
-7.84784627805605

$$$$
