23467
  -OEChem-05192314073D
 Structure written by MMmdl.
 33 34  0     0  0  0  0  0  0999 V2000
   38.8521    7.7940   16.4845 C   0  0  0  0  0  0  0  0  0  0  0  0
   39.1640    9.1368   16.1433 O   0  0  0  0  0  0  0  0  0  0  0  0
   40.4581    9.5713   16.3352 C   0  0  0  0  0  0  0  0  0  0  0  0
   41.4772    8.7481   16.8518 C   0  0  0  0  0  0  0  0  0  0  0  0
   42.7760    9.2630   17.0197 C   0  0  0  0  0  0  0  0  0  0  0  0
   43.0552   10.5988   16.6723 C   0  0  0  0  0  0  0  0  0  0  0  0
   42.0423   11.4358   16.1546 C   0  0  0  0  0  0  0  0  0  0  0  0
   42.3308   12.8213   15.7959 C   0  0  0  0  0  0  0  0  0  0  0  0
   43.3748   13.7665   16.8257 S   0  0  0  0  0  0  0  0  0  0  0  0
   43.2102   15.1796   15.7984 C   0  0  0  0  0  0  0  0  0  0  0  0
   43.9500   16.3947   16.2107 C   0  0  0  0  0  0  0  0  0  0  0  0
   43.8582   17.4209   15.5026 O   0  0  0  0  0  0  0  0  0  0  0  0
   44.6456   16.3657   17.2508 O   0  0  0  0  0  0  0  0  0  0  0  0
   42.3876   14.9221   14.7244 C   0  0  0  0  0  0  0  0  0  0  0  0
   42.0603   15.8348   13.7845 O   0  0  0  0  0  0  0  0  0  0  0  0
   40.8300   16.5041   14.0279 C   0  0  0  0  0  0  0  0  0  0  0  0
   40.5470   17.5475   12.9448 C   0  0  0  0  0  0  0  0  0  0  0  0
   41.4120   17.7291   12.0588 O   0  0  0  0  0  0  0  0  0  0  0  0
   39.4649   18.1683   13.0342 O   0  0  0  0  0  0  0  0  0  0  0  0
   41.9066   13.5794   14.7351 C   0  0  0  0  0  0  0  0  0  0  0  0
   40.7855   12.9055   13.3482 Br  0  0  0  0  0  0  0  0  0  0  0  0
   40.7422   10.9077   15.9890 C   0  0  0  0  0  0  0  0  0  0  0  0
   37.7897    7.5995   16.2762 H   0  0  0  0  0  0  0  0  0  0  0  0
   39.4738    7.1103   15.8877 H   0  0  0  0  0  0  0  0  0  0  0  0
   39.0516    7.6318   17.5540 H   0  0  0  0  0  0  0  0  0  0  0  0
   41.2624    7.7238   17.1186 H   0  0  0  0  0  0  0  0  0  0  0  0
   43.5592    8.6333   17.4153 H   0  0  0  0  0  0  0  0  0  0  0  0
   44.0544   10.9873   16.8031 H   0  0  0  0  0  0  0  0  0  0  0  0
   45.0558   17.2125   17.3817 H   0  0  0  0  0  0  0  0  0  0  0  0
   40.0149   15.7655   14.0370 H   0  0  0  0  0  0  0  0  0  0  0  0
   40.8812   17.0058   15.0055 H   0  0  0  0  0  0  0  0  0  0  0  0
   39.4014   18.7984   12.3261 H   0  0  0  0  0  0  0  0  0  0  0  0
   39.9575   11.5351   15.5927 H   0  0  0  0  0  0  0  0  0  0  0  0
  1  2  1  0  0  0  0
  2  3  1  0  0  0  0
  3 22  2  0  0  0  0
  3  4  1  0  0  0  0
  4  5  2  0  0  0  0
  5  6  1  0  0  0  0
  6  7  2  0  0  0  0
  7  8  1  0  0  0  0
  7 22  1  0  0  0  0
  8 20  2  0  0  0  0
  8  9  1  0  0  0  0
  9 10  1  0  0  0  0
 10 11  1  0  0  0  0
 10 14  2  0  0  0  0
 11 12  2  0  0  0  0
 11 13  1  0  0  0  0
 14 15  1  0  0  0  0
 14 20  1  0  0  0  0
 15 16  1  0  0  0  0
 16 17  1  0  0  0  0
 17 18  2  0  0  0  0
 17 19  1  0  0  0  0
 20 21  1  0  0  0  0
  1 23  1  0  0  0  0
  1 24  1  0  0  0  0
  1 25  1  0  0  0  0
  4 26  1  0  0  0  0
  5 27  1  0  0  0  0
  6 28  1  0  0  0  0
 13 29  1  0  0  0  0
 16 30  1  0  0  0  0
 16 31  1  0  0  0  0
 19 32  1  0  0  0  0
 22 33  1  0  0  0  0
M  END
> <i_m_stars>
2

> <r_user_dG.exp>
-7.34237427296449

$$$$
