23482
  -OEChem-05192314073D
 Structure written by MMmdl.
 52 54  0     0  0  0  0  0  0999 V2000
   37.0780    3.6786   13.1303 C   0  0  0  0  0  0  0  0  0  0  0  0
   37.0507    5.4588   12.6717 S   0  0  0  0  0  0  0  0  0  0  0  0
   35.6546    5.9158   12.6058 O   0  0  0  0  0  0  0  0  0  0  0  0
   37.9320    5.6292   11.5065 O   0  0  0  0  0  0  0  0  0  0  0  0
   37.7104    6.1236   13.8434 N   0  0  0  0  0  0  0  0  0  0  0  0
   36.9746    6.4537   15.0726 C   0  0  0  0  0  0  0  0  0  0  0  0
   37.3499    7.8627   15.5714 C   0  0  0  0  0  0  0  0  0  0  0  0
   38.8803    8.0706   15.6816 C   0  0  0  0  0  0  0  0  0  0  0  0
   39.1733    9.4611   16.0229 N   0  0  0  0  0  0  0  0  0  0  0  0
   40.4943    9.8795   16.2662 C   0  0  0  0  0  0  0  0  0  0  0  0
   41.4767    9.0403   16.8075 C   0  0  0  0  0  0  0  0  0  0  0  0
   42.7730    9.5138   17.0059 C   0  0  0  0  0  0  0  0  0  0  0  0
   43.0991   10.8232   16.6550 C   0  0  0  0  0  0  0  0  0  0  0  0
   42.1345   11.6814   16.1187 C   0  0  0  0  0  0  0  0  0  0  0  0
   42.4736   13.0428   15.7309 C   0  0  0  0  0  0  0  0  0  0  0  0
   43.4983   14.0501   16.7177 S   0  0  0  0  0  0  0  0  0  0  0  0
   43.3217   15.4163   15.6304 C   0  0  0  0  0  0  0  0  0  0  0  0
   44.0475   16.6549   16.0000 C   0  0  0  0  0  0  0  0  0  0  0  0
   44.7297   16.6609   17.0479 O   0  0  0  0  0  0  0  0  0  0  0  0
   43.9566   17.6625   15.2632 O   0  0  0  0  0  0  0  0  0  0  0  0
   42.5067   15.0961   14.5535 C   0  0  0  0  0  0  0  0  0  0  0  0
   42.1804   15.9554   13.5598 O   0  0  0  0  0  0  0  0  0  0  0  0
   40.9447   16.6448   13.7339 C   0  0  0  0  0  0  0  0  0  0  0  0
   40.4718   17.2776   12.4231 C   0  0  0  0  0  0  0  0  0  0  0  0
   39.2380   17.3278   12.2242 O   0  0  0  0  0  0  0  0  0  0  0  0
   41.3522   17.7070   11.6450 O   0  0  0  0  0  0  0  0  0  0  0  0
   42.1050   13.7638   14.6029 C   0  0  0  0  0  0  0  0  0  0  0  0
   41.1293   12.9991   13.1540 Br  0  0  0  0  0  0  0  0  0  0  0  0
   40.8302   11.1974   15.9487 C   0  0  0  0  0  0  0  0  0  0  0  0
   39.5890    7.6410   14.3716 C   0  0  0  0  0  0  0  0  0  0  0  0
   39.1749    6.2318   13.9220 C   0  0  0  0  0  0  0  0  0  0  0  0
   38.1196    3.3286   13.1818 H   0  0  0  0  0  0  0  0  0  0  0  0
   36.5976    3.5453   14.1108 H   0  0  0  0  0  0  0  0  0  0  0  0
   36.5328    3.0965   12.3727 H   0  0  0  0  0  0  0  0  0  0  0  0
   35.8945    6.4194   14.8670 H   0  0  0  0  0  0  0  0  0  0  0  0
   37.2232    5.7172   15.8509 H   0  0  0  0  0  0  0  0  0  0  0  0
   36.9439    8.6046   14.8680 H   0  0  0  0  0  0  0  0  0  0  0  0
   36.9018    8.0153   16.5643 H   0  0  0  0  0  0  0  0  0  0  0  0
   39.2490    7.4217   16.4897 H   0  0  0  0  0  0  0  0  0  0  0  0
   38.8323   10.0186   15.2660 H   0  0  0  0  0  0  0  0  0  0  0  0
   41.2291    8.0229   17.0721 H   0  0  0  0  0  0  0  0  0  0  0  0
   43.5250    8.8659   17.4316 H   0  0  0  0  0  0  0  0  0  0  0  0
   44.1087   11.1787   16.7992 H   0  0  0  0  0  0  0  0  0  0  0  0
   44.4688   18.3724   15.6322 H   0  0  0  0  0  0  0  0  0  0  0  0
   40.1829   15.9323   14.0832 H   0  0  0  0  0  0  0  0  0  0  0  0
   41.0787   17.4362   14.4860 H   0  0  0  0  0  0  0  0  0  0  0  0
   40.9400   18.0798   10.8745 H   0  0  0  0  0  0  0  0  0  0  0  0
   40.0678   11.8584   15.5636 H   0  0  0  0  0  0  0  0  0  0  0  0
   39.3294    8.3566   13.5775 H   0  0  0  0  0  0  0  0  0  0  0  0
   40.6765    7.6548   14.5364 H   0  0  0  0  0  0  0  0  0  0  0  0
   39.5536    5.4954   14.6461 H   0  0  0  0  0  0  0  0  0  0  0  0
   39.6063    6.0270   12.9311 H   0  0  0  0  0  0  0  0  0  0  0  0
  1  2  1  0  0  0  0
  2  3  2  0  0  0  0
  2  4  2  0  0  0  0
  2  5  1  0  0  0  0
  5 31  1  0  0  0  0
  5  6  1  0  0  0  0
  6  7  1  0  0  0  0
  7  8  1  0  0  0  0
  8  9  1  0  0  0  0
  8 30  1  0  0  0  0
  9 10  1  0  0  0  0
 10 29  2  0  0  0  0
 10 11  1  0  0  0  0
 11 12  2  0  0  0  0
 12 13  1  0  0  0  0
 13 14  2  0  0  0  0
 14 15  1  0  0  0  0
 14 29  1  0  0  0  0
 15 27  2  0  0  0  0
 15 16  1  0  0  0  0
 16 17  1  0  0  0  0
 17 18  1  0  0  0  0
 17 21  2  0  0  0  0
 18 19  2  0  0  0  0
 18 20  1  0  0  0  0
 21 22  1  0  0  0  0
 21 27  1  0  0  0  0
 22 23  1  0  0  0  0
 23 24  1  0  0  0  0
 24 25  2  0  0  0  0
 24 26  1  0  0  0  0
 27 28  1  0  0  0  0
 30 31  1  0  0  0  0
  1 32  1  0  0  0  0
  1 33  1  0  0  0  0
  1 34  1  0  0  0  0
  6 35  1  0  0  0  0
  6 36  1  0  0  0  0
  7 37  1  0  0  0  0
  7 38  1  0  0  0  0
  8 39  1  0  0  0  0
  9 40  1  0  0  0  0
 11 41  1  0  0  0  0
 12 42  1  0  0  0  0
 13 43  1  0  0  0  0
 20 44  1  0  0  0  0
 23 45  1  0  0  0  0
 23 46  1  0  0  0  0
 26 47  1  0  0  0  0
 29 48  1  0  0  0  0
 30 49  1  0  0  0  0
 30 50  1  0  0  0  0
 31 51  1  0  0  0  0
 31 52  1  0  0  0  0
M  END
> <i_m_stars>
2

> <r_user_dG.exp>
-10.0065068747035

$$$$
23482
  -OEChem-05192314073D
 Structure written by MMmdl.
 52 54  0     0  0  0  0  0  0999 V2000
   37.0780    3.6786   13.1303 C   0  0  0  0  0  0  0  0  0  0  0  0
   37.0507    5.4588   12.6717 S   0  0  0  0  0  0  0  0  0  0  0  0
   35.6546    5.9158   12.6058 O   0  0  0  0  0  0  0  0  0  0  0  0
   37.9320    5.6292   11.5065 O   0  0  0  0  0  0  0  0  0  0  0  0
   37.7104    6.1236   13.8434 N   0  0  0  0  0  0  0  0  0  0  0  0
   36.9746    6.4537   15.0726 C   0  0  0  0  0  0  0  0  0  0  0  0
   37.3499    7.8627   15.5714 C   0  0  0  0  0  0  0  0  0  0  0  0
   38.8803    8.0706   15.6816 C   0  0  0  0  0  0  0  0  0  0  0  0
   39.1733    9.4611   16.0229 N   0  0  0  0  0  0  0  0  0  0  0  0
   40.4943    9.8795   16.2662 C   0  0  0  0  0  0  0  0  0  0  0  0
   41.4767    9.0403   16.8075 C   0  0  0  0  0  0  0  0  0  0  0  0
   42.7730    9.5138   17.0059 C   0  0  0  0  0  0  0  0  0  0  0  0
   43.0991   10.8232   16.6550 C   0  0  0  0  0  0  0  0  0  0  0  0
   42.1345   11.6814   16.1187 C   0  0  0  0  0  0  0  0  0  0  0  0
   42.4736   13.0428   15.7309 C   0  0  0  0  0  0  0  0  0  0  0  0
   43.4983   14.0501   16.7177 S   0  0  0  0  0  0  0  0  0  0  0  0
   43.3217   15.4163   15.6304 C   0  0  0  0  0  0  0  0  0  0  0  0
   44.0475   16.6549   16.0000 C   0  0  0  0  0  0  0  0  0  0  0  0
   44.7297   16.6609   17.0479 O   0  0  0  0  0  0  0  0  0  0  0  0
   43.9566   17.6625   15.2632 O   0  0  0  0  0  0  0  0  0  0  0  0
   42.5067   15.0961   14.5535 C   0  0  0  0  0  0  0  0  0  0  0  0
   42.1804   15.9554   13.5598 O   0  0  0  0  0  0  0  0  0  0  0  0
   40.9447   16.6448   13.7339 C   0  0  0  0  0  0  0  0  0  0  0  0
   40.4718   17.2776   12.4231 C   0  0  0  0  0  0  0  0  0  0  0  0
   39.2380   17.3278   12.2242 O   0  0  0  0  0  0  0  0  0  0  0  0
   41.3522   17.7070   11.6450 O   0  0  0  0  0  0  0  0  0  0  0  0
   42.1050   13.7638   14.6029 C   0  0  0  0  0  0  0  0  0  0  0  0
   41.1293   12.9991   13.1540 Br  0  0  0  0  0  0  0  0  0  0  0  0
   40.8302   11.1974   15.9487 C   0  0  0  0  0  0  0  0  0  0  0  0
   39.5890    7.6410   14.3716 C   0  0  0  0  0  0  0  0  0  0  0  0
   39.1749    6.2318   13.9220 C   0  0  0  0  0  0  0  0  0  0  0  0
   38.1196    3.3286   13.1818 H   0  0  0  0  0  0  0  0  0  0  0  0
   36.5976    3.5453   14.1108 H   0  0  0  0  0  0  0  0  0  0  0  0
   36.5328    3.0965   12.3727 H   0  0  0  0  0  0  0  0  0  0  0  0
   35.8945    6.4194   14.8670 H   0  0  0  0  0  0  0  0  0  0  0  0
   37.2232    5.7172   15.8509 H   0  0  0  0  0  0  0  0  0  0  0  0
   36.9439    8.6046   14.8680 H   0  0  0  0  0  0  0  0  0  0  0  0
   36.9018    8.0153   16.5643 H   0  0  0  0  0  0  0  0  0  0  0  0
   39.2490    7.4217   16.4897 H   0  0  0  0  0  0  0  0  0  0  0  0
   41.1061    8.7118   17.7897 H   0  0  0  0  0  0  0  0  0  0  0  0
   41.5561    8.1723   16.1365 H   0  0  0  0  0  0  0  0  0  0  0  0
   43.5250    8.8659   17.4316 H   0  0  0  0  0  0  0  0  0  0  0  0
   44.1087   11.1787   16.7992 H   0  0  0  0  0  0  0  0  0  0  0  0
   44.4688   18.3724   15.6322 H   0  0  0  0  0  0  0  0  0  0  0  0
   40.1829   15.9323   14.0832 H   0  0  0  0  0  0  0  0  0  0  0  0
   41.0787   17.4362   14.4860 H   0  0  0  0  0  0  0  0  0  0  0  0
   40.9400   18.0798   10.8745 H   0  0  0  0  0  0  0  0  0  0  0  0
   40.0678   11.8584   15.5636 H   0  0  0  0  0  0  0  0  0  0  0  0
   39.3294    8.3566   13.5775 H   0  0  0  0  0  0  0  0  0  0  0  0
   40.6765    7.6548   14.5364 H   0  0  0  0  0  0  0  0  0  0  0  0
   39.5536    5.4954   14.6461 H   0  0  0  0  0  0  0  0  0  0  0  0
   39.6063    6.0270   12.9311 H   0  0  0  0  0  0  0  0  0  0  0  0
  1  2  1  0  0  0  0
  2  3  2  0  0  0  0
  2  4  2  0  0  0  0
  2  5  1  0  0  0  0
  5 31  1  0  0  0  0
  5  6  1  0  0  0  0
  6  7  1  0  0  0  0
  7  8  1  0  0  0  0
  8  9  1  0  0  0  0
  8 30  1  0  0  0  0
  9 10  2  3  0  0  0
 10 29  1  0  0  0  0
 10 11  1  0  0  0  0
 11 12  1  0  0  0  0
 12 13  2  0  0  0  0
 13 14  1  0  0  0  0
 14 15  1  0  0  0  0
 14 29  2  0  0  0  0
 15 27  2  0  0  0  0
 15 16  1  0  0  0  0
 16 17  1  0  0  0  0
 17 18  1  0  0  0  0
 17 21  2  0  0  0  0
 18 19  2  0  0  0  0
 18 20  1  0  0  0  0
 21 22  1  0  0  0  0
 21 27  1  0  0  0  0
 22 23  1  0  0  0  0
 23 24  1  0  0  0  0
 24 25  2  0  0  0  0
 24 26  1  0  0  0  0
 27 28  1  0  0  0  0
 30 31  1  0  0  0  0
  1 32  1  0  0  0  0
  1 33  1  0  0  0  0
  1 34  1  0  0  0  0
  6 35  1  0  0  0  0
  6 36  1  0  0  0  0
  7 37  1  0  0  0  0
  7 38  1  0  0  0  0
  8 39  1  0  0  0  0
 11 40  1  0  0  0  0
 11 41  1  0  0  0  0
 12 42  1  0  0  0  0
 13 43  1  0  0  0  0
 20 44  1  0  0  0  0
 23 45  1  0  0  0  0
 23 46  1  0  0  0  0
 26 47  1  0  0  0  0
 29 48  1  0  0  0  0
 30 49  1  0  0  0  0
 30 50  1  0  0  0  0
 31 51  1  0  0  0  0
 31 52  1  0  0  0  0
M  END
> <i_m_stars>
2

> <r_user_dG.exp>
-10.0065068747035

$$$$
23482
  -OEChem-05192314073D
 Structure written by MMmdl.
 52 54  0     0  0  0  0  0  0999 V2000
   37.0780    3.6786   13.1303 C   0  0  0  0  0  0  0  0  0  0  0  0
   37.0507    5.4588   12.6717 S   0  0  0  0  0  0  0  0  0  0  0  0
   35.6546    5.9158   12.6058 O   0  0  0  0  0  0  0  0  0  0  0  0
   37.9320    5.6292   11.5065 O   0  0  0  0  0  0  0  0  0  0  0  0
   37.7104    6.1236   13.8434 N   0  0  0  0  0  0  0  0  0  0  0  0
   36.9746    6.4537   15.0726 C   0  0  0  0  0  0  0  0  0  0  0  0
   37.3499    7.8627   15.5714 C   0  0  0  0  0  0  0  0  0  0  0  0
   38.8803    8.0706   15.6816 C   0  0  0  0  0  0  0  0  0  0  0  0
   39.1733    9.4611   16.0229 N   0  0  0  0  0  0  0  0  0  0  0  0
   40.4943    9.8795   16.2662 C   0  0  0  0  0  0  0  0  0  0  0  0
   41.4767    9.0403   16.8075 C   0  0  0  0  0  0  0  0  0  0  0  0
   42.7730    9.5138   17.0059 C   0  0  0  0  0  0  0  0  0  0  0  0
   43.0991   10.8232   16.6550 C   0  0  0  0  0  0  0  0  0  0  0  0
   42.1345   11.6814   16.1187 C   0  0  0  0  0  0  0  0  0  0  0  0
   42.4736   13.0428   15.7309 C   0  0  0  0  0  0  0  0  0  0  0  0
   43.4983   14.0501   16.7177 S   0  0  0  0  0  0  0  0  0  0  0  0
   43.3217   15.4163   15.6304 C   0  0  0  0  0  0  0  0  0  0  0  0
   44.0475   16.6549   16.0000 C   0  0  0  0  0  0  0  0  0  0  0  0
   44.7297   16.6609   17.0479 O   0  0  0  0  0  0  0  0  0  0  0  0
   43.9566   17.6625   15.2632 O   0  0  0  0  0  0  0  0  0  0  0  0
   42.5067   15.0961   14.5535 C   0  0  0  0  0  0  0  0  0  0  0  0
   42.1804   15.9554   13.5598 O   0  0  0  0  0  0  0  0  0  0  0  0
   40.9447   16.6448   13.7339 C   0  0  0  0  0  0  0  0  0  0  0  0
   40.4718   17.2776   12.4231 C   0  0  0  0  0  0  0  0  0  0  0  0
   39.2380   17.3278   12.2242 O   0  0  0  0  0  0  0  0  0  0  0  0
   41.3522   17.7070   11.6450 O   0  0  0  0  0  0  0  0  0  0  0  0
   42.1050   13.7638   14.6029 C   0  0  0  0  0  0  0  0  0  0  0  0
   41.1293   12.9991   13.1540 Br  0  0  0  0  0  0  0  0  0  0  0  0
   40.8302   11.1974   15.9487 C   0  0  0  0  0  0  0  0  0  0  0  0
   39.5890    7.6410   14.3716 C   0  0  0  0  0  0  0  0  0  0  0  0
   39.1749    6.2318   13.9220 C   0  0  0  0  0  0  0  0  0  0  0  0
   38.1196    3.3286   13.1818 H   0  0  0  0  0  0  0  0  0  0  0  0
   36.5976    3.5453   14.1108 H   0  0  0  0  0  0  0  0  0  0  0  0
   36.5328    3.0965   12.3727 H   0  0  0  0  0  0  0  0  0  0  0  0
   35.8945    6.4194   14.8670 H   0  0  0  0  0  0  0  0  0  0  0  0
   37.2232    5.7172   15.8509 H   0  0  0  0  0  0  0  0  0  0  0  0
   36.9439    8.6046   14.8680 H   0  0  0  0  0  0  0  0  0  0  0  0
   36.9018    8.0153   16.5643 H   0  0  0  0  0  0  0  0  0  0  0  0
   39.2490    7.4217   16.4897 H   0  0  0  0  0  0  0  0  0  0  0  0
   41.2291    8.0229   17.0721 H   0  0  0  0  0  0  0  0  0  0  0  0
   43.5250    8.8659   17.4316 H   0  0  0  0  0  0  0  0  0  0  0  0
   43.4777   11.3075   17.5672 H   0  0  0  0  0  0  0  0  0  0  0  0
   43.9079   10.7569   15.9124 H   0  0  0  0  0  0  0  0  0  0  0  0
   44.4688   18.3724   15.6322 H   0  0  0  0  0  0  0  0  0  0  0  0
   40.1829   15.9323   14.0832 H   0  0  0  0  0  0  0  0  0  0  0  0
   41.0787   17.4362   14.4860 H   0  0  0  0  0  0  0  0  0  0  0  0
   40.9400   18.0798   10.8745 H   0  0  0  0  0  0  0  0  0  0  0  0
   40.0678   11.8584   15.5636 H   0  0  0  0  0  0  0  0  0  0  0  0
   39.3294    8.3566   13.5775 H   0  0  0  0  0  0  0  0  0  0  0  0
   40.6765    7.6548   14.5364 H   0  0  0  0  0  0  0  0  0  0  0  0
   39.5536    5.4954   14.6461 H   0  0  0  0  0  0  0  0  0  0  0  0
   39.6063    6.0270   12.9311 H   0  0  0  0  0  0  0  0  0  0  0  0
  1  2  1  0  0  0  0
  2  3  2  0  0  0  0
  2  4  2  0  0  0  0
  2  5  1  0  0  0  0
  5 31  1  0  0  0  0
  5  6  1  0  0  0  0
  6  7  1  0  0  0  0
  7  8  1  0  0  0  0
  8  9  1  0  0  0  0
  8 30  1  0  0  0  0
  9 10  2  3  0  0  0
 10 29  1  0  0  0  0
 10 11  1  0  0  0  0
 11 12  2  0  0  0  0
 12 13  1  0  0  0  0
 13 14  1  0  0  0  0
 14 15  1  0  0  0  0
 14 29  2  0  0  0  0
 15 27  2  0  0  0  0
 15 16  1  0  0  0  0
 16 17  1  0  0  0  0
 17 18  1  0  0  0  0
 17 21  2  0  0  0  0
 18 19  2  0  0  0  0
 18 20  1  0  0  0  0
 21 22  1  0  0  0  0
 21 27  1  0  0  0  0
 22 23  1  0  0  0  0
 23 24  1  0  0  0  0
 24 25  2  0  0  0  0
 24 26  1  0  0  0  0
 27 28  1  0  0  0  0
 30 31  1  0  0  0  0
  1 32  1  0  0  0  0
  1 33  1  0  0  0  0
  1 34  1  0  0  0  0
  6 35  1  0  0  0  0
  6 36  1  0  0  0  0
  7 37  1  0  0  0  0
  7 38  1  0  0  0  0
  8 39  1  0  0  0  0
 11 40  1  0  0  0  0
 12 41  1  0  0  0  0
 13 42  1  0  0  0  0
 13 43  1  0  0  0  0
 20 44  1  0  0  0  0
 23 45  1  0  0  0  0
 23 46  1  0  0  0  0
 26 47  1  0  0  0  0
 29 48  1  0  0  0  0
 30 49  1  0  0  0  0
 30 50  1  0  0  0  0
 31 51  1  0  0  0  0
 31 52  1  0  0  0  0
M  END
> <i_m_stars>
2

> <r_user_dG.exp>
-10.0065068747035

$$$$
23482
  -OEChem-05192314073D
 Structure written by MMmdl.
 52 54  0     0  0  0  0  0  0999 V2000
   37.0780    3.6786   13.1303 C   0  0  0  0  0  0  0  0  0  0  0  0
   37.0507    5.4588   12.6717 S   0  0  0  0  0  0  0  0  0  0  0  0
   35.6546    5.9158   12.6058 O   0  0  0  0  0  0  0  0  0  0  0  0
   37.9320    5.6292   11.5065 O   0  0  0  0  0  0  0  0  0  0  0  0
   37.7104    6.1236   13.8434 N   0  0  0  0  0  0  0  0  0  0  0  0
   36.9746    6.4537   15.0726 C   0  0  0  0  0  0  0  0  0  0  0  0
   37.3499    7.8627   15.5714 C   0  0  0  0  0  0  0  0  0  0  0  0
   38.8803    8.0706   15.6816 C   0  0  0  0  0  0  0  0  0  0  0  0
   39.1733    9.4611   16.0229 N   0  0  0  0  0  0  0  0  0  0  0  0
   40.4943    9.8795   16.2662 C   0  0  0  0  0  0  0  0  0  0  0  0
   41.4767    9.0403   16.8075 C   0  0  0  0  0  0  0  0  0  0  0  0
   42.7730    9.5138   17.0059 C   0  0  0  0  0  0  0  0  0  0  0  0
   43.0991   10.8232   16.6550 C   0  0  0  0  0  0  0  0  0  0  0  0
   42.1345   11.6814   16.1187 C   0  0  0  0  0  0  0  0  0  0  0  0
   42.4736   13.0428   15.7309 C   0  0  0  0  0  0  0  0  0  0  0  0
   43.4983   14.0501   16.7177 S   0  0  0  0  0  0  0  0  0  0  0  0
   43.3217   15.4163   15.6304 C   0  0  0  0  0  0  0  0  0  0  0  0
   44.0475   16.6549   16.0000 C   0  0  0  0  0  0  0  0  0  0  0  0
   44.7297   16.6609   17.0479 O   0  0  0  0  0  0  0  0  0  0  0  0
   43.9566   17.6625   15.2632 O   0  0  0  0  0  0  0  0  0  0  0  0
   42.5067   15.0961   14.5535 C   0  0  0  0  0  0  0  0  0  0  0  0
   42.1804   15.9554   13.5598 O   0  0  0  0  0  0  0  0  0  0  0  0
   40.9447   16.6448   13.7339 C   0  0  0  0  0  0  0  0  0  0  0  0
   40.4718   17.2776   12.4231 C   0  0  0  0  0  0  0  0  0  0  0  0
   39.2380   17.3278   12.2242 O   0  0  0  0  0  0  0  0  0  0  0  0
   41.3522   17.7070   11.6450 O   0  0  0  0  0  0  0  0  0  0  0  0
   42.1050   13.7638   14.6029 C   0  0  0  0  0  0  0  0  0  0  0  0
   41.1293   12.9991   13.1540 Br  0  0  0  0  0  0  0  0  0  0  0  0
   40.8302   11.1974   15.9487 C   0  0  0  0  0  0  0  0  0  0  0  0
   39.5890    7.6410   14.3716 C   0  0  0  0  0  0  0  0  0  0  0  0
   39.1749    6.2318   13.9220 C   0  0  0  0  0  0  0  0  0  0  0  0
   38.1196    3.3286   13.1818 H   0  0  0  0  0  0  0  0  0  0  0  0
   36.5976    3.5453   14.1108 H   0  0  0  0  0  0  0  0  0  0  0  0
   36.5328    3.0965   12.3727 H   0  0  0  0  0  0  0  0  0  0  0  0
   35.8945    6.4194   14.8670 H   0  0  0  0  0  0  0  0  0  0  0  0
   37.2232    5.7172   15.8509 H   0  0  0  0  0  0  0  0  0  0  0  0
   36.9439    8.6046   14.8680 H   0  0  0  0  0  0  0  0  0  0  0  0
   36.9018    8.0153   16.5643 H   0  0  0  0  0  0  0  0  0  0  0  0
   39.2490    7.4217   16.4897 H   0  0  0  0  0  0  0  0  0  0  0  0
   41.2291    8.0229   17.0721 H   0  0  0  0  0  0  0  0  0  0  0  0
   43.5250    8.8659   17.4316 H   0  0  0  0  0  0  0  0  0  0  0  0
   44.1087   11.1787   16.7992 H   0  0  0  0  0  0  0  0  0  0  0  0
   44.4688   18.3724   15.6322 H   0  0  0  0  0  0  0  0  0  0  0  0
   40.1829   15.9323   14.0832 H   0  0  0  0  0  0  0  0  0  0  0  0
   41.0787   17.4362   14.4860 H   0  0  0  0  0  0  0  0  0  0  0  0
   40.9400   18.0798   10.8745 H   0  0  0  0  0  0  0  0  0  0  0  0
   40.5851   11.3326   14.8849 H   0  0  0  0  0  0  0  0  0  0  0  0
   40.1787   11.8396   16.5595 H   0  0  0  0  0  0  0  0  0  0  0  0
   39.3294    8.3566   13.5775 H   0  0  0  0  0  0  0  0  0  0  0  0
   40.6765    7.6548   14.5364 H   0  0  0  0  0  0  0  0  0  0  0  0
   39.5536    5.4954   14.6461 H   0  0  0  0  0  0  0  0  0  0  0  0
   39.6063    6.0270   12.9311 H   0  0  0  0  0  0  0  0  0  0  0  0
  1  2  1  0  0  0  0
  2  3  2  0  0  0  0
  2  4  2  0  0  0  0
  2  5  1  0  0  0  0
  5 31  1  0  0  0  0
  5  6  1  0  0  0  0
  6  7  1  0  0  0  0
  7  8  1  0  0  0  0
  8  9  1  0  0  0  0
  8 30  1  0  0  0  0
  9 10  2  3  0  0  0
 10 29  1  0  0  0  0
 10 11  1  0  0  0  0
 11 12  2  0  0  0  0
 12 13  1  0  0  0  0
 13 14  2  0  0  0  0
 14 15  1  0  0  0  0
 14 29  1  0  0  0  0
 15 27  2  0  0  0  0
 15 16  1  0  0  0  0
 16 17  1  0  0  0  0
 17 18  1  0  0  0  0
 17 21  2  0  0  0  0
 18 19  2  0  0  0  0
 18 20  1  0  0  0  0
 21 22  1  0  0  0  0
 21 27  1  0  0  0  0
 22 23  1  0  0  0  0
 23 24  1  0  0  0  0
 24 25  2  0  0  0  0
 24 26  1  0  0  0  0
 27 28  1  0  0  0  0
 30 31  1  0  0  0  0
  1 32  1  0  0  0  0
  1 33  1  0  0  0  0
  1 34  1  0  0  0  0
  6 35  1  0  0  0  0
  6 36  1  0  0  0  0
  7 37  1  0  0  0  0
  7 38  1  0  0  0  0
  8 39  1  0  0  0  0
 11 40  1  0  0  0  0
 12 41  1  0  0  0  0
 13 42  1  0  0  0  0
 20 43  1  0  0  0  0
 23 44  1  0  0  0  0
 23 45  1  0  0  0  0
 26 46  1  0  0  0  0
 29 47  1  0  0  0  0
 29 48  1  0  0  0  0
 30 49  1  0  0  0  0
 30 50  1  0  0  0  0
 31 51  1  0  0  0  0
 31 52  1  0  0  0  0
M  END
> <i_m_stars>
2

> <r_user_dG.exp>
-10.0065068747035

$$$$
