23469
  -OEChem-05192314073D
 Structure written by MMmdl.
 43 45  0     0  0  0  0  0  0999 V2000
   39.1680   17.5120   12.6949 O   0  0  0  0  0  0  0  0  0  0  0  0
   40.3245   17.0339   12.6933 C   0  0  0  0  0  0  0  0  0  0  0  0
   41.2000   17.2665   11.8308 O   0  0  0  0  0  0  0  0  0  0  0  0
   40.7257   16.1090   13.8445 C   0  0  0  0  0  0  0  0  0  0  0  0
   42.0919   15.7294   13.7437 O   0  0  0  0  0  0  0  0  0  0  0  0
   42.5145   14.9212   14.7395 C   0  0  0  0  0  0  0  0  0  0  0  0
   42.1856   13.5746   14.8668 C   0  0  0  0  0  0  0  0  0  0  0  0
   41.2053   12.6509   13.5174 Br  0  0  0  0  0  0  0  0  0  0  0  0
   42.6245   12.9340   16.0147 C   0  0  0  0  0  0  0  0  0  0  0  0
   42.3443   11.5877   16.4784 C   0  0  0  0  0  0  0  0  0  0  0  0
   43.3652   10.7569   16.9470 C   0  0  0  0  0  0  0  0  0  0  0  0
   43.0859    9.4573   17.3660 C   0  0  0  0  0  0  0  0  0  0  0  0
   41.7792    8.9724   17.3118 C   0  0  0  0  0  0  0  0  0  0  0  0
   40.7401    9.7888   16.8448 C   0  0  0  0  0  0  0  0  0  0  0  0
   39.3981    9.3768   16.7741 N   0  0  0  0  0  0  0  0  0  0  0  0
   38.9977    7.9742   16.7120 C   0  0  0  0  0  0  0  0  0  0  0  0
   38.6112    7.3065   17.6711 O   0  0  0  0  0  0  0  0  0  0  0  0
   39.0447    7.4076   15.2989 C   0  0  0  0  0  0  0  0  0  0  0  0
   40.2643    7.0598   14.7072 C   0  0  0  0  0  0  0  0  0  0  0  0
   40.2940    6.5235   13.4197 C   0  0  0  0  0  0  0  0  0  0  0  0
   39.1061    6.3134   12.7236 C   0  0  0  0  0  0  0  0  0  0  0  0
   37.8875    6.6562   13.3069 C   0  0  0  0  0  0  0  0  0  0  0  0
   37.8553    7.2050   14.5894 C   0  0  0  0  0  0  0  0  0  0  0  0
   41.0347   11.0942   16.4477 C   0  0  0  0  0  0  0  0  0  0  0  0
   43.6360   14.0254   16.9149 S   0  0  0  0  0  0  0  0  0  0  0  0
   43.3652   15.3253   15.7666 C   0  0  0  0  0  0  0  0  0  0  0  0
   44.0484   16.6109   16.0386 C   0  0  0  0  0  0  0  0  0  0  0  0
   43.8753   17.5608   15.2444 O   0  0  0  0  0  0  0  0  0  0  0  0
   44.7768   16.7159   17.0509 O   0  0  0  0  0  0  0  0  0  0  0  0
   40.8514   17.8618   11.1776 H   0  0  0  0  0  0  0  0  0  0  0  0
   40.5680   16.6336   14.7984 H   0  0  0  0  0  0  0  0  0  0  0  0
   40.0987   15.2057   13.8148 H   0  0  0  0  0  0  0  0  0  0  0  0
   44.3798   11.1250   16.9849 H   0  0  0  0  0  0  0  0  0  0  0  0
   43.8814    8.8256   17.7327 H   0  0  0  0  0  0  0  0  0  0  0  0
   41.5671    7.9628   17.6313 H   0  0  0  0  0  0  0  0  0  0  0  0
   38.6843   10.0771   16.7660 H   0  0  0  0  0  0  0  0  0  0  0  0
   41.1865    7.2072   15.2497 H   0  0  0  0  0  0  0  0  0  0  0  0
   41.2392    6.2710   12.9622 H   0  0  0  0  0  0  0  0  0  0  0  0
   39.1292    5.8851   11.7324 H   0  0  0  0  0  0  0  0  0  0  0  0
   36.9668    6.4968   12.7654 H   0  0  0  0  0  0  0  0  0  0  0  0
   36.9096    7.4743   15.0360 H   0  0  0  0  0  0  0  0  0  0  0  0
   40.2354   11.7370   16.1096 H   0  0  0  0  0  0  0  0  0  0  0  0
   45.1414   17.5923   17.0897 H   0  0  0  0  0  0  0  0  0  0  0  0
  1  2  2  0  0  0  0
  2  3  1  0  0  0  0
  2  4  1  0  0  0  0
  4  5  1  0  0  0  0
  5  6  1  0  0  0  0
  6 26  2  0  0  0  0
  6  7  1  0  0  0  0
  7  8  1  0  0  0  0
  7  9  2  0  0  0  0
  9 10  1  0  0  0  0
  9 25  1  0  0  0  0
 10 24  2  0  0  0  0
 10 11  1  0  0  0  0
 11 12  2  0  0  0  0
 12 13  1  0  0  0  0
 13 14  2  0  0  0  0
 14 15  1  0  0  0  0
 14 24  1  0  0  0  0
 15 16  1  0  0  0  0
 16 17  2  0  0  0  0
 16 18  1  0  0  0  0
 18 23  2  0  0  0  0
 18 19  1  0  0  0  0
 19 20  2  0  0  0  0
 20 21  1  0  0  0  0
 21 22  2  0  0  0  0
 22 23  1  0  0  0  0
 25 26  1  0  0  0  0
 26 27  1  0  0  0  0
 27 28  2  0  0  0  0
 27 29  1  0  0  0  0
  3 30  1  0  0  0  0
  4 31  1  0  0  0  0
  4 32  1  0  0  0  0
 11 33  1  0  0  0  0
 12 34  1  0  0  0  0
 13 35  1  0  0  0  0
 15 36  1  0  0  0  0
 19 37  1  0  0  0  0
 20 38  1  0  0  0  0
 21 39  1  0  0  0  0
 22 40  1  0  0  0  0
 23 41  1  0  0  0  0
 24 42  1  0  0  0  0
 29 43  1  0  0  0  0
M  END
> <i_m_stars>
2

> <r_user_dG.exp>
-7.72301857947764

$$$$
23469
  -OEChem-05192314073D
 Structure written by MMmdl.
 43 45  0     0  0  0  0  0  0999 V2000
   39.1680   17.5120   12.6949 O   0  0  0  0  0  0  0  0  0  0  0  0
   40.3245   17.0339   12.6933 C   0  0  0  0  0  0  0  0  0  0  0  0
   41.2000   17.2665   11.8308 O   0  0  0  0  0  0  0  0  0  0  0  0
   40.7257   16.1090   13.8445 C   0  0  0  0  0  0  0  0  0  0  0  0
   42.0919   15.7294   13.7437 O   0  0  0  0  0  0  0  0  0  0  0  0
   42.5145   14.9212   14.7395 C   0  0  0  0  0  0  0  0  0  0  0  0
   42.1856   13.5746   14.8668 C   0  0  0  0  0  0  0  0  0  0  0  0
   41.2053   12.6509   13.5174 Br  0  0  0  0  0  0  0  0  0  0  0  0
   42.6245   12.9340   16.0147 C   0  0  0  0  0  0  0  0  0  0  0  0
   42.3443   11.5877   16.4784 C   0  0  0  0  0  0  0  0  0  0  0  0
   43.3652   10.7569   16.9470 C   0  0  0  0  0  0  0  0  0  0  0  0
   43.0859    9.4573   17.3660 C   0  0  0  0  0  0  0  0  0  0  0  0
   41.7792    8.9724   17.3118 C   0  0  0  0  0  0  0  0  0  0  0  0
   40.7401    9.7888   16.8448 C   0  0  0  0  0  0  0  0  0  0  0  0
   39.3981    9.3768   16.7741 N   0  0  0  0  0  0  0  0  0  0  0  0
   38.9977    7.9742   16.7120 C   0  0  0  0  0  0  0  0  0  0  0  0
   38.6112    7.3065   17.6711 O   0  0  0  0  0  0  0  0  0  0  0  0
   39.0447    7.4076   15.2989 C   0  0  0  0  0  0  0  0  0  0  0  0
   40.2643    7.0598   14.7072 C   0  0  0  0  0  0  0  0  0  0  0  0
   40.2940    6.5235   13.4197 C   0  0  0  0  0  0  0  0  0  0  0  0
   39.1061    6.3134   12.7236 C   0  0  0  0  0  0  0  0  0  0  0  0
   37.8875    6.6562   13.3069 C   0  0  0  0  0  0  0  0  0  0  0  0
   37.8553    7.2050   14.5894 C   0  0  0  0  0  0  0  0  0  0  0  0
   41.0347   11.0942   16.4477 C   0  0  0  0  0  0  0  0  0  0  0  0
   43.6360   14.0254   16.9149 S   0  0  0  0  0  0  0  0  0  0  0  0
   43.3652   15.3253   15.7666 C   0  0  0  0  0  0  0  0  0  0  0  0
   44.0484   16.6109   16.0386 C   0  0  0  0  0  0  0  0  0  0  0  0
   43.8753   17.5608   15.2444 O   0  0  0  0  0  0  0  0  0  0  0  0
   44.7768   16.7159   17.0509 O   0  0  0  0  0  0  0  0  0  0  0  0
   40.8514   17.8618   11.1776 H   0  0  0  0  0  0  0  0  0  0  0  0
   40.5680   16.6336   14.7984 H   0  0  0  0  0  0  0  0  0  0  0  0
   40.0987   15.2057   13.8148 H   0  0  0  0  0  0  0  0  0  0  0  0
   44.3798   11.1250   16.9849 H   0  0  0  0  0  0  0  0  0  0  0  0
   43.8814    8.8256   17.7327 H   0  0  0  0  0  0  0  0  0  0  0  0
   41.5671    7.9628   17.6313 H   0  0  0  0  0  0  0  0  0  0  0  0
   38.4088    6.4243   17.3824 H   0  0  0  0  0  0  0  0  0  0  0  0
   41.1865    7.2072   15.2497 H   0  0  0  0  0  0  0  0  0  0  0  0
   41.2392    6.2710   12.9622 H   0  0  0  0  0  0  0  0  0  0  0  0
   39.1292    5.8851   11.7324 H   0  0  0  0  0  0  0  0  0  0  0  0
   36.9668    6.4968   12.7654 H   0  0  0  0  0  0  0  0  0  0  0  0
   36.9096    7.4743   15.0360 H   0  0  0  0  0  0  0  0  0  0  0  0
   40.2354   11.7370   16.1096 H   0  0  0  0  0  0  0  0  0  0  0  0
   45.1414   17.5923   17.0897 H   0  0  0  0  0  0  0  0  0  0  0  0
  1  2  2  0  0  0  0
  2  3  1  0  0  0  0
  2  4  1  0  0  0  0
  4  5  1  0  0  0  0
  5  6  1  0  0  0  0
  6 26  2  0  0  0  0
  6  7  1  0  0  0  0
  7  8  1  0  0  0  0
  7  9  2  0  0  0  0
  9 10  1  0  0  0  0
  9 25  1  0  0  0  0
 10 24  2  0  0  0  0
 10 11  1  0  0  0  0
 11 12  2  0  0  0  0
 12 13  1  0  0  0  0
 13 14  2  0  0  0  0
 14 15  1  0  0  0  0
 14 24  1  0  0  0  0
 15 16  2  3  0  0  0
 16 17  1  0  0  0  0
 16 18  1  0  0  0  0
 18 23  2  0  0  0  0
 18 19  1  0  0  0  0
 19 20  2  0  0  0  0
 20 21  1  0  0  0  0
 21 22  2  0  0  0  0
 22 23  1  0  0  0  0
 25 26  1  0  0  0  0
 26 27  1  0  0  0  0
 27 28  2  0  0  0  0
 27 29  1  0  0  0  0
  3 30  1  0  0  0  0
  4 31  1  0  0  0  0
  4 32  1  0  0  0  0
 11 33  1  0  0  0  0
 12 34  1  0  0  0  0
 13 35  1  0  0  0  0
 17 36  1  0  0  0  0
 19 37  1  0  0  0  0
 20 38  1  0  0  0  0
 21 39  1  0  0  0  0
 22 40  1  0  0  0  0
 23 41  1  0  0  0  0
 24 42  1  0  0  0  0
 29 43  1  0  0  0  0
M  END
> <i_m_stars>
2

> <r_user_dG.exp>
-7.72301857947764

$$$$
23469
  -OEChem-05192314073D
 Structure written by MMmdl.
 43 45  0     0  0  0  0  0  0999 V2000
   39.1680   17.5120   12.6949 O   0  0  0  0  0  0  0  0  0  0  0  0
   40.3245   17.0339   12.6933 C   0  0  0  0  0  0  0  0  0  0  0  0
   41.2000   17.2665   11.8308 O   0  0  0  0  0  0  0  0  0  0  0  0
   40.7257   16.1090   13.8445 C   0  0  0  0  0  0  0  0  0  0  0  0
   42.0919   15.7294   13.7437 O   0  0  0  0  0  0  0  0  0  0  0  0
   42.5145   14.9212   14.7395 C   0  0  0  0  0  0  0  0  0  0  0  0
   42.1856   13.5746   14.8668 C   0  0  0  0  0  0  0  0  0  0  0  0
   41.2053   12.6509   13.5174 Br  0  0  0  0  0  0  0  0  0  0  0  0
   42.6245   12.9340   16.0147 C   0  0  0  0  0  0  0  0  0  0  0  0
   42.3443   11.5877   16.4784 C   0  0  0  0  0  0  0  0  0  0  0  0
   43.3652   10.7569   16.9470 C   0  0  0  0  0  0  0  0  0  0  0  0
   43.0859    9.4573   17.3660 C   0  0  0  0  0  0  0  0  0  0  0  0
   41.7792    8.9724   17.3118 C   0  0  0  0  0  0  0  0  0  0  0  0
   40.7401    9.7888   16.8448 C   0  0  0  0  0  0  0  0  0  0  0  0
   39.3981    9.3768   16.7741 N   0  0  0  0  0  0  0  0  0  0  0  0
   38.9977    7.9742   16.7120 C   0  0  0  0  0  0  0  0  0  0  0  0
   38.6112    7.3065   17.6711 O   0  0  0  0  0  0  0  0  0  0  0  0
   39.0447    7.4076   15.2989 C   0  0  0  0  0  0  0  0  0  0  0  0
   40.2643    7.0598   14.7072 C   0  0  0  0  0  0  0  0  0  0  0  0
   40.2940    6.5235   13.4197 C   0  0  0  0  0  0  0  0  0  0  0  0
   39.1061    6.3134   12.7236 C   0  0  0  0  0  0  0  0  0  0  0  0
   37.8875    6.6562   13.3069 C   0  0  0  0  0  0  0  0  0  0  0  0
   37.8553    7.2050   14.5894 C   0  0  0  0  0  0  0  0  0  0  0  0
   41.0347   11.0942   16.4477 C   0  0  0  0  0  0  0  0  0  0  0  0
   43.6360   14.0254   16.9149 S   0  0  0  0  0  0  0  0  0  0  0  0
   43.3652   15.3253   15.7666 C   0  0  0  0  0  0  0  0  0  0  0  0
   44.0484   16.6109   16.0386 C   0  0  0  0  0  0  0  0  0  0  0  0
   43.8753   17.5608   15.2444 O   0  0  0  0  0  0  0  0  0  0  0  0
   44.7768   16.7159   17.0509 O   0  0  0  0  0  0  0  0  0  0  0  0
   40.8514   17.8618   11.1776 H   0  0  0  0  0  0  0  0  0  0  0  0
   40.5680   16.6336   14.7984 H   0  0  0  0  0  0  0  0  0  0  0  0
   40.0987   15.2057   13.8148 H   0  0  0  0  0  0  0  0  0  0  0  0
   44.3798   11.1250   16.9849 H   0  0  0  0  0  0  0  0  0  0  0  0
   43.8814    8.8256   17.7327 H   0  0  0  0  0  0  0  0  0  0  0  0
   41.7986    8.0839   16.6636 H   0  0  0  0  0  0  0  0  0  0  0  0
   41.5104    8.6735   18.3357 H   0  0  0  0  0  0  0  0  0  0  0  0
   41.1865    7.2072   15.2497 H   0  0  0  0  0  0  0  0  0  0  0  0
   41.2392    6.2710   12.9622 H   0  0  0  0  0  0  0  0  0  0  0  0
   39.1292    5.8851   11.7324 H   0  0  0  0  0  0  0  0  0  0  0  0
   36.9668    6.4968   12.7654 H   0  0  0  0  0  0  0  0  0  0  0  0
   36.9096    7.4743   15.0360 H   0  0  0  0  0  0  0  0  0  0  0  0
   40.2354   11.7370   16.1096 H   0  0  0  0  0  0  0  0  0  0  0  0
   45.1414   17.5923   17.0897 H   0  0  0  0  0  0  0  0  0  0  0  0
  1  2  2  0  0  0  0
  2  3  1  0  0  0  0
  2  4  1  0  0  0  0
  4  5  1  0  0  0  0
  5  6  1  0  0  0  0
  6 26  2  0  0  0  0
  6  7  1  0  0  0  0
  7  8  1  0  0  0  0
  7  9  2  0  0  0  0
  9 10  1  0  0  0  0
  9 25  1  0  0  0  0
 10 24  2  0  0  0  0
 10 11  1  0  0  0  0
 11 12  2  0  0  0  0
 12 13  1  0  0  0  0
 13 14  1  0  0  0  0
 14 15  2  0  0  0  0
 14 24  1  0  0  0  0
 15 16  1  0  0  0  0
 16 17  2  0  0  0  0
 16 18  1  0  0  0  0
 18 23  2  0  0  0  0
 18 19  1  0  0  0  0
 19 20  2  0  0  0  0
 20 21  1  0  0  0  0
 21 22  2  0  0  0  0
 22 23  1  0  0  0  0
 25 26  1  0  0  0  0
 26 27  1  0  0  0  0
 27 28  2  0  0  0  0
 27 29  1  0  0  0  0
  3 30  1  0  0  0  0
  4 31  1  0  0  0  0
  4 32  1  0  0  0  0
 11 33  1  0  0  0  0
 12 34  1  0  0  0  0
 13 35  1  0  0  0  0
 13 36  1  0  0  0  0
 19 37  1  0  0  0  0
 20 38  1  0  0  0  0
 21 39  1  0  0  0  0
 22 40  1  0  0  0  0
 23 41  1  0  0  0  0
 24 42  1  0  0  0  0
 29 43  1  0  0  0  0
M  END
> <i_m_stars>
2

> <r_user_dG.exp>
-7.72301857947764

$$$$
23469
  -OEChem-05192314073D
 Structure written by MMmdl.
 43 45  0     0  0  0  0  0  0999 V2000
   39.1680   17.5120   12.6949 O   0  0  0  0  0  0  0  0  0  0  0  0
   40.3245   17.0339   12.6933 C   0  0  0  0  0  0  0  0  0  0  0  0
   41.2000   17.2665   11.8308 O   0  0  0  0  0  0  0  0  0  0  0  0
   40.7257   16.1090   13.8445 C   0  0  0  0  0  0  0  0  0  0  0  0
   42.0919   15.7294   13.7437 O   0  0  0  0  0  0  0  0  0  0  0  0
   42.5145   14.9212   14.7395 C   0  0  0  0  0  0  0  0  0  0  0  0
   42.1856   13.5746   14.8668 C   0  0  0  0  0  0  0  0  0  0  0  0
   41.2053   12.6509   13.5174 Br  0  0  0  0  0  0  0  0  0  0  0  0
   42.6245   12.9340   16.0147 C   0  0  0  0  0  0  0  0  0  0  0  0
   42.3443   11.5877   16.4784 C   0  0  0  0  0  0  0  0  0  0  0  0
   43.3652   10.7569   16.9470 C   0  0  0  0  0  0  0  0  0  0  0  0
   43.0859    9.4573   17.3660 C   0  0  0  0  0  0  0  0  0  0  0  0
   41.7792    8.9724   17.3118 C   0  0  0  0  0  0  0  0  0  0  0  0
   40.7401    9.7888   16.8448 C   0  0  0  0  0  0  0  0  0  0  0  0
   39.3981    9.3768   16.7741 N   0  0  0  0  0  0  0  0  0  0  0  0
   38.9977    7.9742   16.7120 C   0  0  0  0  0  0  0  0  0  0  0  0
   38.6112    7.3065   17.6711 O   0  0  0  0  0  0  0  0  0  0  0  0
   39.0447    7.4076   15.2989 C   0  0  0  0  0  0  0  0  0  0  0  0
   40.2643    7.0598   14.7072 C   0  0  0  0  0  0  0  0  0  0  0  0
   40.2940    6.5235   13.4197 C   0  0  0  0  0  0  0  0  0  0  0  0
   39.1061    6.3134   12.7236 C   0  0  0  0  0  0  0  0  0  0  0  0
   37.8875    6.6562   13.3069 C   0  0  0  0  0  0  0  0  0  0  0  0
   37.8553    7.2050   14.5894 C   0  0  0  0  0  0  0  0  0  0  0  0
   41.0347   11.0942   16.4477 C   0  0  0  0  0  0  0  0  0  0  0  0
   43.6360   14.0254   16.9149 S   0  0  0  0  0  0  0  0  0  0  0  0
   43.3652   15.3253   15.7666 C   0  0  0  0  0  0  0  0  0  0  0  0
   44.0484   16.6109   16.0386 C   0  0  0  0  0  0  0  0  0  0  0  0
   43.8753   17.5608   15.2444 O   0  0  0  0  0  0  0  0  0  0  0  0
   44.7768   16.7159   17.0509 O   0  0  0  0  0  0  0  0  0  0  0  0
   40.8514   17.8618   11.1776 H   0  0  0  0  0  0  0  0  0  0  0  0
   40.5680   16.6336   14.7984 H   0  0  0  0  0  0  0  0  0  0  0  0
   40.0987   15.2057   13.8148 H   0  0  0  0  0  0  0  0  0  0  0  0
   44.1016   10.6741   16.1341 H   0  0  0  0  0  0  0  0  0  0  0  0
   43.8221   11.2727   17.8045 H   0  0  0  0  0  0  0  0  0  0  0  0
   43.8814    8.8256   17.7327 H   0  0  0  0  0  0  0  0  0  0  0  0
   41.5671    7.9628   17.6313 H   0  0  0  0  0  0  0  0  0  0  0  0
   41.1865    7.2072   15.2497 H   0  0  0  0  0  0  0  0  0  0  0  0
   41.2392    6.2710   12.9622 H   0  0  0  0  0  0  0  0  0  0  0  0
   39.1292    5.8851   11.7324 H   0  0  0  0  0  0  0  0  0  0  0  0
   36.9668    6.4968   12.7654 H   0  0  0  0  0  0  0  0  0  0  0  0
   36.9096    7.4743   15.0360 H   0  0  0  0  0  0  0  0  0  0  0  0
   40.2354   11.7370   16.1096 H   0  0  0  0  0  0  0  0  0  0  0  0
   45.1414   17.5923   17.0897 H   0  0  0  0  0  0  0  0  0  0  0  0
  1  2  2  0  0  0  0
  2  3  1  0  0  0  0
  2  4  1  0  0  0  0
  4  5  1  0  0  0  0
  5  6  1  0  0  0  0
  6 26  2  0  0  0  0
  6  7  1  0  0  0  0
  7  8  1  0  0  0  0
  7  9  2  0  0  0  0
  9 10  1  0  0  0  0
  9 25  1  0  0  0  0
 10 24  2  0  0  0  0
 10 11  1  0  0  0  0
 11 12  1  0  0  0  0
 12 13  2  0  0  0  0
 13 14  1  0  0  0  0
 14 15  2  0  0  0  0
 14 24  1  0  0  0  0
 15 16  1  0  0  0  0
 16 17  2  0  0  0  0
 16 18  1  0  0  0  0
 18 23  2  0  0  0  0
 18 19  1  0  0  0  0
 19 20  2  0  0  0  0
 20 21  1  0  0  0  0
 21 22  2  0  0  0  0
 22 23  1  0  0  0  0
 25 26  1  0  0  0  0
 26 27  1  0  0  0  0
 27 28  2  0  0  0  0
 27 29  1  0  0  0  0
  3 30  1  0  0  0  0
  4 31  1  0  0  0  0
  4 32  1  0  0  0  0
 11 33  1  0  0  0  0
 11 34  1  0  0  0  0
 12 35  1  0  0  0  0
 13 36  1  0  0  0  0
 19 37  1  0  0  0  0
 20 38  1  0  0  0  0
 21 39  1  0  0  0  0
 22 40  1  0  0  0  0
 23 41  1  0  0  0  0
 24 42  1  0  0  0  0
 29 43  1  0  0  0  0
M  END
> <i_m_stars>
2

> <r_user_dG.exp>
-7.72301857947764

$$$$
23469
  -OEChem-05192314073D
 Structure written by MMmdl.
 43 45  0     0  0  0  0  0  0999 V2000
   39.1680   17.5120   12.6949 O   0  0  0  0  0  0  0  0  0  0  0  0
   40.3245   17.0339   12.6933 C   0  0  0  0  0  0  0  0  0  0  0  0
   41.2000   17.2665   11.8308 O   0  0  0  0  0  0  0  0  0  0  0  0
   40.7257   16.1090   13.8445 C   0  0  0  0  0  0  0  0  0  0  0  0
   42.0919   15.7294   13.7437 O   0  0  0  0  0  0  0  0  0  0  0  0
   42.5145   14.9212   14.7395 C   0  0  0  0  0  0  0  0  0  0  0  0
   42.1856   13.5746   14.8668 C   0  0  0  0  0  0  0  0  0  0  0  0
   41.2053   12.6509   13.5174 Br  0  0  0  0  0  0  0  0  0  0  0  0
   42.6245   12.9340   16.0147 C   0  0  0  0  0  0  0  0  0  0  0  0
   42.3443   11.5877   16.4784 C   0  0  0  0  0  0  0  0  0  0  0  0
   43.3652   10.7569   16.9470 C   0  0  0  0  0  0  0  0  0  0  0  0
   43.0859    9.4573   17.3660 C   0  0  0  0  0  0  0  0  0  0  0  0
   41.7792    8.9724   17.3118 C   0  0  0  0  0  0  0  0  0  0  0  0
   40.7401    9.7888   16.8448 C   0  0  0  0  0  0  0  0  0  0  0  0
   39.3981    9.3768   16.7741 N   0  0  0  0  0  0  0  0  0  0  0  0
   38.9977    7.9742   16.7120 C   0  0  0  0  0  0  0  0  0  0  0  0
   38.6112    7.3065   17.6711 O   0  0  0  0  0  0  0  0  0  0  0  0
   39.0447    7.4076   15.2989 C   0  0  0  0  0  0  0  0  0  0  0  0
   40.2643    7.0598   14.7072 C   0  0  0  0  0  0  0  0  0  0  0  0
   40.2940    6.5235   13.4197 C   0  0  0  0  0  0  0  0  0  0  0  0
   39.1061    6.3134   12.7236 C   0  0  0  0  0  0  0  0  0  0  0  0
   37.8875    6.6562   13.3069 C   0  0  0  0  0  0  0  0  0  0  0  0
   37.8553    7.2050   14.5894 C   0  0  0  0  0  0  0  0  0  0  0  0
   41.0347   11.0942   16.4477 C   0  0  0  0  0  0  0  0  0  0  0  0
   43.6360   14.0254   16.9149 S   0  0  0  0  0  0  0  0  0  0  0  0
   43.3652   15.3253   15.7666 C   0  0  0  0  0  0  0  0  0  0  0  0
   44.0484   16.6109   16.0386 C   0  0  0  0  0  0  0  0  0  0  0  0
   43.8753   17.5608   15.2444 O   0  0  0  0  0  0  0  0  0  0  0  0
   44.7768   16.7159   17.0509 O   0  0  0  0  0  0  0  0  0  0  0  0
   40.8514   17.8618   11.1776 H   0  0  0  0  0  0  0  0  0  0  0  0
   40.5680   16.6336   14.7984 H   0  0  0  0  0  0  0  0  0  0  0  0
   40.0987   15.2057   13.8148 H   0  0  0  0  0  0  0  0  0  0  0  0
   44.3798   11.1250   16.9849 H   0  0  0  0  0  0  0  0  0  0  0  0
   43.8814    8.8256   17.7327 H   0  0  0  0  0  0  0  0  0  0  0  0
   41.5671    7.9628   17.6313 H   0  0  0  0  0  0  0  0  0  0  0  0
   41.1865    7.2072   15.2497 H   0  0  0  0  0  0  0  0  0  0  0  0
   41.2392    6.2710   12.9622 H   0  0  0  0  0  0  0  0  0  0  0  0
   39.1292    5.8851   11.7324 H   0  0  0  0  0  0  0  0  0  0  0  0
   36.9668    6.4968   12.7654 H   0  0  0  0  0  0  0  0  0  0  0  0
   36.9096    7.4743   15.0360 H   0  0  0  0  0  0  0  0  0  0  0  0
   40.4376   11.7571   17.0911 H   0  0  0  0  0  0  0  0  0  0  0  0
   40.6918   11.1873   15.4067 H   0  0  0  0  0  0  0  0  0  0  0  0
   45.1414   17.5923   17.0897 H   0  0  0  0  0  0  0  0  0  0  0  0
  1  2  2  0  0  0  0
  2  3  1  0  0  0  0
  2  4  1  0  0  0  0
  4  5  1  0  0  0  0
  5  6  1  0  0  0  0
  6 26  2  0  0  0  0
  6  7  1  0  0  0  0
  7  8  1  0  0  0  0
  7  9  2  0  0  0  0
  9 10  1  0  0  0  0
  9 25  1  0  0  0  0
 10 24  1  0  0  0  0
 10 11  2  0  0  0  0
 11 12  1  0  0  0  0
 12 13  2  0  0  0  0
 13 14  1  0  0  0  0
 14 15  2  0  0  0  0
 14 24  1  0  0  0  0
 15 16  1  0  0  0  0
 16 17  2  0  0  0  0
 16 18  1  0  0  0  0
 18 23  2  0  0  0  0
 18 19  1  0  0  0  0
 19 20  2  0  0  0  0
 20 21  1  0  0  0  0
 21 22  2  0  0  0  0
 22 23  1  0  0  0  0
 25 26  1  0  0  0  0
 26 27  1  0  0  0  0
 27 28  2  0  0  0  0
 27 29  1  0  0  0  0
  3 30  1  0  0  0  0
  4 31  1  0  0  0  0
  4 32  1  0  0  0  0
 11 33  1  0  0  0  0
 12 34  1  0  0  0  0
 13 35  1  0  0  0  0
 19 36  1  0  0  0  0
 20 37  1  0  0  0  0
 21 38  1  0  0  0  0
 22 39  1  0  0  0  0
 23 40  1  0  0  0  0
 24 41  1  0  0  0  0
 24 42  1  0  0  0  0
 29 43  1  0  0  0  0
M  END
> <i_m_stars>
2

> <r_user_dG.exp>
-7.72301857947764

$$$$
