23479
  -OEChem-05192314073D
 Structure written by MMmdl.
 51 53  0     0  0  0  0  0  0999 V2000
   35.5544    5.2757   12.3072 C   0  0  0  0  0  0  0  0  0  0  0  0
   37.0750    5.4456   12.2999 C   0  0  0  0  0  0  0  0  0  0  0  0
   37.6775    5.2201   11.2503 O   0  0  0  0  0  0  0  0  0  0  0  0
   37.7153    5.8364   13.4582 N   0  0  0  0  0  0  0  0  0  0  0  0
   37.0173    6.1412   14.7978 C   0  0  0  0  0  0  0  0  0  0  0  0
   37.3829    7.5402   15.3340 C   0  0  0  0  0  0  0  0  0  0  0  0
   38.9114    7.7621   15.4291 C   0  0  0  0  0  0  0  0  0  0  0  0
   39.1835    9.1385   15.8446 N   0  0  0  0  0  0  0  0  0  0  0  0
   40.4829    9.5699   16.1594 C   0  0  0  0  0  0  0  0  0  0  0  0
   41.4815    8.7321   16.6725 C   0  0  0  0  0  0  0  0  0  0  0  0
   42.7506    9.2417   16.9424 C   0  0  0  0  0  0  0  0  0  0  0  0
   43.0417   10.5800   16.6715 C   0  0  0  0  0  0  0  0  0  0  0  0
   42.0577   11.4350   16.1601 C   0  0  0  0  0  0  0  0  0  0  0  0
   42.3473   12.8247   15.8292 C   0  0  0  0  0  0  0  0  0  0  0  0
   43.4366   13.7822   16.8006 S   0  0  0  0  0  0  0  0  0  0  0  0
   43.2082   15.1991   15.7938 C   0  0  0  0  0  0  0  0  0  0  0  0
   43.9665   16.4136   16.1781 C   0  0  0  0  0  0  0  0  0  0  0  0
   44.7099   16.3644   17.1823 O   0  0  0  0  0  0  0  0  0  0  0  0
   43.8413   17.4562   15.4971 O   0  0  0  0  0  0  0  0  0  0  0  0
   42.3248   14.9326   14.7526 C   0  0  0  0  0  0  0  0  0  0  0  0
   41.9730   15.8282   13.8005 O   0  0  0  0  0  0  0  0  0  0  0  0
   40.8053   16.5939   14.0882 C   0  0  0  0  0  0  0  0  0  0  0  0
   40.2683   17.2823   12.8312 C   0  0  0  0  0  0  0  0  0  0  0  0
   40.8644   17.0551   11.7554 O   0  0  0  0  0  0  0  0  0  0  0  0
   39.2662   18.0188   12.9662 O   0  0  0  0  0  0  0  0  0  0  0  0
   41.8775   13.6145   14.7795 C   0  0  0  0  0  0  0  0  0  0  0  0
   40.7166   12.9520   13.4196 Br  0  0  0  0  0  0  0  0  0  0  0  0
   40.7764   10.9164   15.9496 C   0  0  0  0  0  0  0  0  0  0  0  0
   39.6099    7.4194   14.0884 C   0  0  0  0  0  0  0  0  0  0  0  0
   39.2402    6.0199   13.5606 C   0  0  0  0  0  0  0  0  0  0  0  0
   35.2156    4.9584   11.3099 H   0  0  0  0  0  0  0  0  0  0  0  0
   35.2743    4.5135   13.0492 H   0  0  0  0  0  0  0  0  0  0  0  0
   35.0799    6.2332   12.5681 H   0  0  0  0  0  0  0  0  0  0  0  0
   35.9284    6.0906   14.6505 H   0  0  0  0  0  0  0  0  0  0  0  0
   37.3227    5.3864   15.5373 H   0  0  0  0  0  0  0  0  0  0  0  0
   36.9585    8.2979   14.6588 H   0  0  0  0  0  0  0  0  0  0  0  0
   36.9471    7.6576   16.3371 H   0  0  0  0  0  0  0  0  0  0  0  0
   39.3027    7.0765   16.1952 H   0  0  0  0  0  0  0  0  0  0  0  0
   38.8645    9.7255   15.1005 H   0  0  0  0  0  0  0  0  0  0  0  0
   41.2679    7.6900   16.8592 H   0  0  0  0  0  0  0  0  0  0  0  0
   43.5107    8.5995   17.3622 H   0  0  0  0  0  0  0  0  0  0  0  0
   44.0354   10.9595   16.8582 H   0  0  0  0  0  0  0  0  0  0  0  0
   44.3812   18.1441   15.8683 H   0  0  0  0  0  0  0  0  0  0  0  0
   40.0291   15.9263   14.4905 H   0  0  0  0  0  0  0  0  0  0  0  0
   41.0546   17.3597   14.8374 H   0  0  0  0  0  0  0  0  0  0  0  0
   39.0240   18.3825   12.1227 H   0  0  0  0  0  0  0  0  0  0  0  0
   39.9914   11.5782   15.6148 H   0  0  0  0  0  0  0  0  0  0  0  0
   39.3145    8.1671   13.3375 H   0  0  0  0  0  0  0  0  0  0  0  0
   40.6987    7.4614   14.2391 H   0  0  0  0  0  0  0  0  0  0  0  0
   39.6456    5.2614   14.2464 H   0  0  0  0  0  0  0  0  0  0  0  0
   39.6834    5.8863   12.5628 H   0  0  0  0  0  0  0  0  0  0  0  0
  1  2  1  0  0  0  0
  2  3  2  0  0  0  0
  2  4  1  0  0  0  0
  4 30  1  0  0  0  0
  4  5  1  0  0  0  0
  5  6  1  0  0  0  0
  6  7  1  0  0  0  0
  7  8  1  0  0  0  0
  7 29  1  0  0  0  0
  8  9  1  0  0  0  0
  9 28  2  0  0  0  0
  9 10  1  0  0  0  0
 10 11  2  0  0  0  0
 11 12  1  0  0  0  0
 12 13  2  0  0  0  0
 13 14  1  0  0  0  0
 13 28  1  0  0  0  0
 14 26  2  0  0  0  0
 14 15  1  0  0  0  0
 15 16  1  0  0  0  0
 16 17  1  0  0  0  0
 16 20  2  0  0  0  0
 17 18  2  0  0  0  0
 17 19  1  0  0  0  0
 20 21  1  0  0  0  0
 20 26  1  0  0  0  0
 21 22  1  0  0  0  0
 22 23  1  0  0  0  0
 23 24  2  0  0  0  0
 23 25  1  0  0  0  0
 26 27  1  0  0  0  0
 29 30  1  0  0  0  0
  1 31  1  0  0  0  0
  1 32  1  0  0  0  0
  1 33  1  0  0  0  0
  5 34  1  0  0  0  0
  5 35  1  0  0  0  0
  6 36  1  0  0  0  0
  6 37  1  0  0  0  0
  7 38  1  0  0  0  0
  8 39  1  0  0  0  0
 10 40  1  0  0  0  0
 11 41  1  0  0  0  0
 12 42  1  0  0  0  0
 19 43  1  0  0  0  0
 22 44  1  0  0  0  0
 22 45  1  0  0  0  0
 25 46  1  0  0  0  0
 28 47  1  0  0  0  0
 29 48  1  0  0  0  0
 29 49  1  0  0  0  0
 30 50  1  0  0  0  0
 30 51  1  0  0  0  0
M  END
> <i_m_stars>
2

> <r_user_dG.exp>
-9.14235922654499

$$$$
23479
  -OEChem-05192314073D
 Structure written by MMmdl.
 51 53  0     0  0  0  0  0  0999 V2000
   35.5544    5.2757   12.3072 C   0  0  0  0  0  0  0  0  0  0  0  0
   37.0750    5.4456   12.2999 C   0  0  0  0  0  0  0  0  0  0  0  0
   37.6775    5.2201   11.2503 O   0  0  0  0  0  0  0  0  0  0  0  0
   37.7153    5.8364   13.4582 N   0  0  0  0  0  0  0  0  0  0  0  0
   37.0173    6.1412   14.7978 C   0  0  0  0  0  0  0  0  0  0  0  0
   37.3829    7.5402   15.3340 C   0  0  0  0  0  0  0  0  0  0  0  0
   38.9114    7.7621   15.4291 C   0  0  0  0  0  0  0  0  0  0  0  0
   39.1835    9.1385   15.8446 N   0  0  0  0  0  0  0  0  0  0  0  0
   40.4829    9.5699   16.1594 C   0  0  0  0  0  0  0  0  0  0  0  0
   41.4815    8.7321   16.6725 C   0  0  0  0  0  0  0  0  0  0  0  0
   42.7506    9.2417   16.9424 C   0  0  0  0  0  0  0  0  0  0  0  0
   43.0417   10.5800   16.6715 C   0  0  0  0  0  0  0  0  0  0  0  0
   42.0577   11.4350   16.1601 C   0  0  0  0  0  0  0  0  0  0  0  0
   42.3473   12.8247   15.8292 C   0  0  0  0  0  0  0  0  0  0  0  0
   43.4366   13.7822   16.8006 S   0  0  0  0  0  0  0  0  0  0  0  0
   43.2082   15.1991   15.7938 C   0  0  0  0  0  0  0  0  0  0  0  0
   43.9665   16.4136   16.1781 C   0  0  0  0  0  0  0  0  0  0  0  0
   44.7099   16.3644   17.1823 O   0  0  0  0  0  0  0  0  0  0  0  0
   43.8413   17.4562   15.4971 O   0  0  0  0  0  0  0  0  0  0  0  0
   42.3248   14.9326   14.7526 C   0  0  0  0  0  0  0  0  0  0  0  0
   41.9730   15.8282   13.8005 O   0  0  0  0  0  0  0  0  0  0  0  0
   40.8053   16.5939   14.0882 C   0  0  0  0  0  0  0  0  0  0  0  0
   40.2683   17.2823   12.8312 C   0  0  0  0  0  0  0  0  0  0  0  0
   40.8644   17.0551   11.7554 O   0  0  0  0  0  0  0  0  0  0  0  0
   39.2662   18.0188   12.9662 O   0  0  0  0  0  0  0  0  0  0  0  0
   41.8775   13.6145   14.7795 C   0  0  0  0  0  0  0  0  0  0  0  0
   40.7166   12.9520   13.4196 Br  0  0  0  0  0  0  0  0  0  0  0  0
   40.7764   10.9164   15.9496 C   0  0  0  0  0  0  0  0  0  0  0  0
   39.6099    7.4194   14.0884 C   0  0  0  0  0  0  0  0  0  0  0  0
   39.2402    6.0199   13.5606 C   0  0  0  0  0  0  0  0  0  0  0  0
   35.2156    4.9584   11.3099 H   0  0  0  0  0  0  0  0  0  0  0  0
   35.2743    4.5135   13.0492 H   0  0  0  0  0  0  0  0  0  0  0  0
   35.0799    6.2332   12.5681 H   0  0  0  0  0  0  0  0  0  0  0  0
   35.9284    6.0906   14.6505 H   0  0  0  0  0  0  0  0  0  0  0  0
   37.3227    5.3864   15.5373 H   0  0  0  0  0  0  0  0  0  0  0  0
   36.9585    8.2979   14.6588 H   0  0  0  0  0  0  0  0  0  0  0  0
   36.9471    7.6576   16.3371 H   0  0  0  0  0  0  0  0  0  0  0  0
   39.3027    7.0765   16.1952 H   0  0  0  0  0  0  0  0  0  0  0  0
   41.0967    8.3222   17.6180 H   0  0  0  0  0  0  0  0  0  0  0  0
   41.6150    7.9165   15.9466 H   0  0  0  0  0  0  0  0  0  0  0  0
   43.5107    8.5995   17.3622 H   0  0  0  0  0  0  0  0  0  0  0  0
   44.0354   10.9595   16.8582 H   0  0  0  0  0  0  0  0  0  0  0  0
   44.3812   18.1441   15.8683 H   0  0  0  0  0  0  0  0  0  0  0  0
   40.0291   15.9263   14.4905 H   0  0  0  0  0  0  0  0  0  0  0  0
   41.0546   17.3597   14.8374 H   0  0  0  0  0  0  0  0  0  0  0  0
   39.0240   18.3825   12.1227 H   0  0  0  0  0  0  0  0  0  0  0  0
   39.9914   11.5782   15.6148 H   0  0  0  0  0  0  0  0  0  0  0  0
   39.3145    8.1671   13.3375 H   0  0  0  0  0  0  0  0  0  0  0  0
   40.6987    7.4614   14.2391 H   0  0  0  0  0  0  0  0  0  0  0  0
   39.6456    5.2614   14.2464 H   0  0  0  0  0  0  0  0  0  0  0  0
   39.6834    5.8863   12.5628 H   0  0  0  0  0  0  0  0  0  0  0  0
  1  2  1  0  0  0  0
  2  3  2  0  0  0  0
  2  4  1  0  0  0  0
  4 30  1  0  0  0  0
  4  5  1  0  0  0  0
  5  6  1  0  0  0  0
  6  7  1  0  0  0  0
  7  8  1  0  0  0  0
  7 29  1  0  0  0  0
  8  9  2  0  0  0  0
  9 28  1  0  0  0  0
  9 10  1  0  0  0  0
 10 11  1  0  0  0  0
 11 12  2  0  0  0  0
 12 13  1  0  0  0  0
 13 14  1  0  0  0  0
 13 28  2  0  0  0  0
 14 26  2  0  0  0  0
 14 15  1  0  0  0  0
 15 16  1  0  0  0  0
 16 17  1  0  0  0  0
 16 20  2  0  0  0  0
 17 18  2  0  0  0  0
 17 19  1  0  0  0  0
 20 21  1  0  0  0  0
 20 26  1  0  0  0  0
 21 22  1  0  0  0  0
 22 23  1  0  0  0  0
 23 24  2  0  0  0  0
 23 25  1  0  0  0  0
 26 27  1  0  0  0  0
 29 30  1  0  0  0  0
  1 31  1  0  0  0  0
  1 32  1  0  0  0  0
  1 33  1  0  0  0  0
  5 34  1  0  0  0  0
  5 35  1  0  0  0  0
  6 36  1  0  0  0  0
  6 37  1  0  0  0  0
  7 38  1  0  0  0  0
 10 39  1  0  0  0  0
 10 40  1  0  0  0  0
 11 41  1  0  0  0  0
 12 42  1  0  0  0  0
 19 43  1  0  0  0  0
 22 44  1  0  0  0  0
 22 45  1  0  0  0  0
 25 46  1  0  0  0  0
 28 47  1  0  0  0  0
 29 48  1  0  0  0  0
 29 49  1  0  0  0  0
 30 50  1  0  0  0  0
 30 51  1  0  0  0  0
M  END
> <i_m_stars>
2

> <r_user_dG.exp>
-9.14235922654499

$$$$
23479
  -OEChem-05192314073D
 Structure written by MMmdl.
 51 53  0     0  0  0  0  0  0999 V2000
   35.5544    5.2757   12.3072 C   0  0  0  0  0  0  0  0  0  0  0  0
   37.0750    5.4456   12.2999 C   0  0  0  0  0  0  0  0  0  0  0  0
   37.6775    5.2201   11.2503 O   0  0  0  0  0  0  0  0  0  0  0  0
   37.7153    5.8364   13.4582 N   0  0  0  0  0  0  0  0  0  0  0  0
   37.0173    6.1412   14.7978 C   0  0  0  0  0  0  0  0  0  0  0  0
   37.3829    7.5402   15.3340 C   0  0  0  0  0  0  0  0  0  0  0  0
   38.9114    7.7621   15.4291 C   0  0  0  0  0  0  0  0  0  0  0  0
   39.1835    9.1385   15.8446 N   0  0  0  0  0  0  0  0  0  0  0  0
   40.4829    9.5699   16.1594 C   0  0  0  0  0  0  0  0  0  0  0  0
   41.4815    8.7321   16.6725 C   0  0  0  0  0  0  0  0  0  0  0  0
   42.7506    9.2417   16.9424 C   0  0  0  0  0  0  0  0  0  0  0  0
   43.0417   10.5800   16.6715 C   0  0  0  0  0  0  0  0  0  0  0  0
   42.0577   11.4350   16.1601 C   0  0  0  0  0  0  0  0  0  0  0  0
   42.3473   12.8247   15.8292 C   0  0  0  0  0  0  0  0  0  0  0  0
   43.4366   13.7822   16.8006 S   0  0  0  0  0  0  0  0  0  0  0  0
   43.2082   15.1991   15.7938 C   0  0  0  0  0  0  0  0  0  0  0  0
   43.9665   16.4136   16.1781 C   0  0  0  0  0  0  0  0  0  0  0  0
   44.7099   16.3644   17.1823 O   0  0  0  0  0  0  0  0  0  0  0  0
   43.8413   17.4562   15.4971 O   0  0  0  0  0  0  0  0  0  0  0  0
   42.3248   14.9326   14.7526 C   0  0  0  0  0  0  0  0  0  0  0  0
   41.9730   15.8282   13.8005 O   0  0  0  0  0  0  0  0  0  0  0  0
   40.8053   16.5939   14.0882 C   0  0  0  0  0  0  0  0  0  0  0  0
   40.2683   17.2823   12.8312 C   0  0  0  0  0  0  0  0  0  0  0  0
   40.8644   17.0551   11.7554 O   0  0  0  0  0  0  0  0  0  0  0  0
   39.2662   18.0188   12.9662 O   0  0  0  0  0  0  0  0  0  0  0  0
   41.8775   13.6145   14.7795 C   0  0  0  0  0  0  0  0  0  0  0  0
   40.7166   12.9520   13.4196 Br  0  0  0  0  0  0  0  0  0  0  0  0
   40.7764   10.9164   15.9496 C   0  0  0  0  0  0  0  0  0  0  0  0
   39.6099    7.4194   14.0884 C   0  0  0  0  0  0  0  0  0  0  0  0
   39.2402    6.0199   13.5606 C   0  0  0  0  0  0  0  0  0  0  0  0
   35.2156    4.9584   11.3099 H   0  0  0  0  0  0  0  0  0  0  0  0
   35.2743    4.5135   13.0492 H   0  0  0  0  0  0  0  0  0  0  0  0
   35.0799    6.2332   12.5681 H   0  0  0  0  0  0  0  0  0  0  0  0
   35.9284    6.0906   14.6505 H   0  0  0  0  0  0  0  0  0  0  0  0
   37.3227    5.3864   15.5373 H   0  0  0  0  0  0  0  0  0  0  0  0
   36.9585    8.2979   14.6588 H   0  0  0  0  0  0  0  0  0  0  0  0
   36.9471    7.6576   16.3371 H   0  0  0  0  0  0  0  0  0  0  0  0
   39.3027    7.0765   16.1952 H   0  0  0  0  0  0  0  0  0  0  0  0
   41.2679    7.6900   16.8592 H   0  0  0  0  0  0  0  0  0  0  0  0
   43.5107    8.5995   17.3622 H   0  0  0  0  0  0  0  0  0  0  0  0
   43.3843   11.0250   17.6173 H   0  0  0  0  0  0  0  0  0  0  0  0
   43.8678   10.5813   15.9452 H   0  0  0  0  0  0  0  0  0  0  0  0
   44.3812   18.1441   15.8683 H   0  0  0  0  0  0  0  0  0  0  0  0
   40.0291   15.9263   14.4905 H   0  0  0  0  0  0  0  0  0  0  0  0
   41.0546   17.3597   14.8374 H   0  0  0  0  0  0  0  0  0  0  0  0
   39.0240   18.3825   12.1227 H   0  0  0  0  0  0  0  0  0  0  0  0
   39.9914   11.5782   15.6148 H   0  0  0  0  0  0  0  0  0  0  0  0
   39.3145    8.1671   13.3375 H   0  0  0  0  0  0  0  0  0  0  0  0
   40.6987    7.4614   14.2391 H   0  0  0  0  0  0  0  0  0  0  0  0
   39.6456    5.2614   14.2464 H   0  0  0  0  0  0  0  0  0  0  0  0
   39.6834    5.8863   12.5628 H   0  0  0  0  0  0  0  0  0  0  0  0
  1  2  1  0  0  0  0
  2  3  2  0  0  0  0
  2  4  1  0  0  0  0
  4 30  1  0  0  0  0
  4  5  1  0  0  0  0
  5  6  1  0  0  0  0
  6  7  1  0  0  0  0
  7  8  1  0  0  0  0
  7 29  1  0  0  0  0
  8  9  2  0  0  0  0
  9 28  1  0  0  0  0
  9 10  1  0  0  0  0
 10 11  2  0  0  0  0
 11 12  1  0  0  0  0
 12 13  1  0  0  0  0
 13 14  1  0  0  0  0
 13 28  2  0  0  0  0
 14 26  2  0  0  0  0
 14 15  1  0  0  0  0
 15 16  1  0  0  0  0
 16 17  1  0  0  0  0
 16 20  2  0  0  0  0
 17 18  2  0  0  0  0
 17 19  1  0  0  0  0
 20 21  1  0  0  0  0
 20 26  1  0  0  0  0
 21 22  1  0  0  0  0
 22 23  1  0  0  0  0
 23 24  2  0  0  0  0
 23 25  1  0  0  0  0
 26 27  1  0  0  0  0
 29 30  1  0  0  0  0
  1 31  1  0  0  0  0
  1 32  1  0  0  0  0
  1 33  1  0  0  0  0
  5 34  1  0  0  0  0
  5 35  1  0  0  0  0
  6 36  1  0  0  0  0
  6 37  1  0  0  0  0
  7 38  1  0  0  0  0
 10 39  1  0  0  0  0
 11 40  1  0  0  0  0
 12 41  1  0  0  0  0
 12 42  1  0  0  0  0
 19 43  1  0  0  0  0
 22 44  1  0  0  0  0
 22 45  1  0  0  0  0
 25 46  1  0  0  0  0
 28 47  1  0  0  0  0
 29 48  1  0  0  0  0
 29 49  1  0  0  0  0
 30 50  1  0  0  0  0
 30 51  1  0  0  0  0
M  END
> <i_m_stars>
2

> <r_user_dG.exp>
-9.14235922654499

$$$$
23479
  -OEChem-05192314073D
 Structure written by MMmdl.
 51 53  0     0  0  0  0  0  0999 V2000
   35.5544    5.2757   12.3072 C   0  0  0  0  0  0  0  0  0  0  0  0
   37.0750    5.4456   12.2999 C   0  0  0  0  0  0  0  0  0  0  0  0
   37.6775    5.2201   11.2503 O   0  0  0  0  0  0  0  0  0  0  0  0
   37.7153    5.8364   13.4582 N   0  0  0  0  0  0  0  0  0  0  0  0
   37.0173    6.1412   14.7978 C   0  0  0  0  0  0  0  0  0  0  0  0
   37.3829    7.5402   15.3340 C   0  0  0  0  0  0  0  0  0  0  0  0
   38.9114    7.7621   15.4291 C   0  0  0  0  0  0  0  0  0  0  0  0
   39.1835    9.1385   15.8446 N   0  0  0  0  0  0  0  0  0  0  0  0
   40.4829    9.5699   16.1594 C   0  0  0  0  0  0  0  0  0  0  0  0
   41.4815    8.7321   16.6725 C   0  0  0  0  0  0  0  0  0  0  0  0
   42.7506    9.2417   16.9424 C   0  0  0  0  0  0  0  0  0  0  0  0
   43.0417   10.5800   16.6715 C   0  0  0  0  0  0  0  0  0  0  0  0
   42.0577   11.4350   16.1601 C   0  0  0  0  0  0  0  0  0  0  0  0
   42.3473   12.8247   15.8292 C   0  0  0  0  0  0  0  0  0  0  0  0
   43.4366   13.7822   16.8006 S   0  0  0  0  0  0  0  0  0  0  0  0
   43.2082   15.1991   15.7938 C   0  0  0  0  0  0  0  0  0  0  0  0
   43.9665   16.4136   16.1781 C   0  0  0  0  0  0  0  0  0  0  0  0
   44.7099   16.3644   17.1823 O   0  0  0  0  0  0  0  0  0  0  0  0
   43.8413   17.4562   15.4971 O   0  0  0  0  0  0  0  0  0  0  0  0
   42.3248   14.9326   14.7526 C   0  0  0  0  0  0  0  0  0  0  0  0
   41.9730   15.8282   13.8005 O   0  0  0  0  0  0  0  0  0  0  0  0
   40.8053   16.5939   14.0882 C   0  0  0  0  0  0  0  0  0  0  0  0
   40.2683   17.2823   12.8312 C   0  0  0  0  0  0  0  0  0  0  0  0
   40.8644   17.0551   11.7554 O   0  0  0  0  0  0  0  0  0  0  0  0
   39.2662   18.0188   12.9662 O   0  0  0  0  0  0  0  0  0  0  0  0
   41.8775   13.6145   14.7795 C   0  0  0  0  0  0  0  0  0  0  0  0
   40.7166   12.9520   13.4196 Br  0  0  0  0  0  0  0  0  0  0  0  0
   40.7764   10.9164   15.9496 C   0  0  0  0  0  0  0  0  0  0  0  0
   39.6099    7.4194   14.0884 C   0  0  0  0  0  0  0  0  0  0  0  0
   39.2402    6.0199   13.5606 C   0  0  0  0  0  0  0  0  0  0  0  0
   35.2156    4.9584   11.3099 H   0  0  0  0  0  0  0  0  0  0  0  0
   35.2743    4.5135   13.0492 H   0  0  0  0  0  0  0  0  0  0  0  0
   35.0799    6.2332   12.5681 H   0  0  0  0  0  0  0  0  0  0  0  0
   35.9284    6.0906   14.6505 H   0  0  0  0  0  0  0  0  0  0  0  0
   37.3227    5.3864   15.5373 H   0  0  0  0  0  0  0  0  0  0  0  0
   36.9585    8.2979   14.6588 H   0  0  0  0  0  0  0  0  0  0  0  0
   36.9471    7.6576   16.3371 H   0  0  0  0  0  0  0  0  0  0  0  0
   39.3027    7.0765   16.1952 H   0  0  0  0  0  0  0  0  0  0  0  0
   41.2679    7.6900   16.8592 H   0  0  0  0  0  0  0  0  0  0  0  0
   43.5107    8.5995   17.3622 H   0  0  0  0  0  0  0  0  0  0  0  0
   44.0354   10.9595   16.8582 H   0  0  0  0  0  0  0  0  0  0  0  0
   44.3812   18.1441   15.8683 H   0  0  0  0  0  0  0  0  0  0  0  0
   40.0291   15.9263   14.4905 H   0  0  0  0  0  0  0  0  0  0  0  0
   41.0546   17.3597   14.8374 H   0  0  0  0  0  0  0  0  0  0  0  0
   39.0240   18.3825   12.1227 H   0  0  0  0  0  0  0  0  0  0  0  0
   40.5277   11.1261   14.8988 H   0  0  0  0  0  0  0  0  0  0  0  0
   40.1018   11.4850   16.6066 H   0  0  0  0  0  0  0  0  0  0  0  0
   39.3145    8.1671   13.3375 H   0  0  0  0  0  0  0  0  0  0  0  0
   40.6987    7.4614   14.2391 H   0  0  0  0  0  0  0  0  0  0  0  0
   39.6456    5.2614   14.2464 H   0  0  0  0  0  0  0  0  0  0  0  0
   39.6834    5.8863   12.5628 H   0  0  0  0  0  0  0  0  0  0  0  0
  1  2  1  0  0  0  0
  2  3  2  0  0  0  0
  2  4  1  0  0  0  0
  4 30  1  0  0  0  0
  4  5  1  0  0  0  0
  5  6  1  0  0  0  0
  6  7  1  0  0  0  0
  7  8  1  0  0  0  0
  7 29  1  0  0  0  0
  8  9  2  0  0  0  0
  9 28  1  0  0  0  0
  9 10  1  0  0  0  0
 10 11  2  0  0  0  0
 11 12  1  0  0  0  0
 12 13  2  0  0  0  0
 13 14  1  0  0  0  0
 13 28  1  0  0  0  0
 14 26  2  0  0  0  0
 14 15  1  0  0  0  0
 15 16  1  0  0  0  0
 16 17  1  0  0  0  0
 16 20  2  0  0  0  0
 17 18  2  0  0  0  0
 17 19  1  0  0  0  0
 20 21  1  0  0  0  0
 20 26  1  0  0  0  0
 21 22  1  0  0  0  0
 22 23  1  0  0  0  0
 23 24  2  0  0  0  0
 23 25  1  0  0  0  0
 26 27  1  0  0  0  0
 29 30  1  0  0  0  0
  1 31  1  0  0  0  0
  1 32  1  0  0  0  0
  1 33  1  0  0  0  0
  5 34  1  0  0  0  0
  5 35  1  0  0  0  0
  6 36  1  0  0  0  0
  6 37  1  0  0  0  0
  7 38  1  0  0  0  0
 10 39  1  0  0  0  0
 11 40  1  0  0  0  0
 12 41  1  0  0  0  0
 19 42  1  0  0  0  0
 22 43  1  0  0  0  0
 22 44  1  0  0  0  0
 25 45  1  0  0  0  0
 28 46  1  0  0  0  0
 28 47  1  0  0  0  0
 29 48  1  0  0  0  0
 29 49  1  0  0  0  0
 30 50  1  0  0  0  0
 30 51  1  0  0  0  0
M  END
> <i_m_stars>
2

> <r_user_dG.exp>
-9.14235922654499

$$$$
23479
  -OEChem-05192314073D
 Structure written by MMmdl.
 51 53  0     0  0  0  0  0  0999 V2000
   35.5544    5.2757   12.3072 C   0  0  0  0  0  0  0  0  0  0  0  0
   37.0750    5.4456   12.2999 C   0  0  0  0  0  0  0  0  0  0  0  0
   37.6775    5.2201   11.2503 O   0  0  0  0  0  0  0  0  0  0  0  0
   37.7153    5.8364   13.4582 N   0  0  0  0  0  0  0  0  0  0  0  0
   37.0173    6.1412   14.7978 C   0  0  0  0  0  0  0  0  0  0  0  0
   37.3829    7.5402   15.3340 C   0  0  0  0  0  0  0  0  0  0  0  0
   38.9114    7.7621   15.4291 C   0  0  0  0  0  0  0  0  0  0  0  0
   39.1835    9.1385   15.8446 N   0  0  0  0  0  0  0  0  0  0  0  0
   40.4829    9.5699   16.1594 C   0  0  0  0  0  0  0  0  0  0  0  0
   41.4815    8.7321   16.6725 C   0  0  0  0  0  0  0  0  0  0  0  0
   42.7506    9.2417   16.9424 C   0  0  0  0  0  0  0  0  0  0  0  0
   43.0417   10.5800   16.6715 C   0  0  0  0  0  0  0  0  0  0  0  0
   42.0577   11.4350   16.1601 C   0  0  0  0  0  0  0  0  0  0  0  0
   42.3473   12.8247   15.8292 C   0  0  0  0  0  0  0  0  0  0  0  0
   43.4366   13.7822   16.8006 S   0  0  0  0  0  0  0  0  0  0  0  0
   43.2082   15.1991   15.7938 C   0  0  0  0  0  0  0  0  0  0  0  0
   43.9665   16.4136   16.1781 C   0  0  0  0  0  0  0  0  0  0  0  0
   44.7099   16.3644   17.1823 O   0  0  0  0  0  0  0  0  0  0  0  0
   43.8413   17.4562   15.4971 O   0  0  0  0  0  0  0  0  0  0  0  0
   42.3248   14.9326   14.7526 C   0  0  0  0  0  0  0  0  0  0  0  0
   41.9730   15.8282   13.8005 O   0  0  0  0  0  0  0  0  0  0  0  0
   40.8053   16.5939   14.0882 C   0  0  0  0  0  0  0  0  0  0  0  0
   40.2683   17.2823   12.8312 C   0  0  0  0  0  0  0  0  0  0  0  0
   40.8644   17.0551   11.7554 O   0  0  0  0  0  0  0  0  0  0  0  0
   39.2662   18.0188   12.9662 O   0  0  0  0  0  0  0  0  0  0  0  0
   41.8775   13.6145   14.7795 C   0  0  0  0  0  0  0  0  0  0  0  0
   40.7166   12.9520   13.4196 Br  0  0  0  0  0  0  0  0  0  0  0  0
   40.7764   10.9164   15.9496 C   0  0  0  0  0  0  0  0  0  0  0  0
   39.6099    7.4194   14.0884 C   0  0  0  0  0  0  0  0  0  0  0  0
   39.2402    6.0199   13.5606 C   0  0  0  0  0  0  0  0  0  0  0  0
   34.9947    5.4612   13.2120 H   0  0  0  0  0  0  0  0  0  0  0  0
   35.0408    4.9703   11.4075 H   0  0  0  0  0  0  0  0  0  0  0  0
   38.6076    5.3620   11.3818 H   0  0  0  0  0  0  0  0  0  0  0  0
   35.9284    6.0906   14.6505 H   0  0  0  0  0  0  0  0  0  0  0  0
   37.3227    5.3864   15.5373 H   0  0  0  0  0  0  0  0  0  0  0  0
   36.9585    8.2979   14.6588 H   0  0  0  0  0  0  0  0  0  0  0  0
   36.9471    7.6576   16.3371 H   0  0  0  0  0  0  0  0  0  0  0  0
   39.3027    7.0765   16.1952 H   0  0  0  0  0  0  0  0  0  0  0  0
   38.8645    9.7255   15.1005 H   0  0  0  0  0  0  0  0  0  0  0  0
   41.2679    7.6900   16.8592 H   0  0  0  0  0  0  0  0  0  0  0  0
   43.5107    8.5995   17.3622 H   0  0  0  0  0  0  0  0  0  0  0  0
   44.0354   10.9595   16.8582 H   0  0  0  0  0  0  0  0  0  0  0  0
   44.3812   18.1441   15.8683 H   0  0  0  0  0  0  0  0  0  0  0  0
   40.0291   15.9263   14.4905 H   0  0  0  0  0  0  0  0  0  0  0  0
   41.0546   17.3597   14.8374 H   0  0  0  0  0  0  0  0  0  0  0  0
   39.0240   18.3825   12.1227 H   0  0  0  0  0  0  0  0  0  0  0  0
   39.9914   11.5782   15.6148 H   0  0  0  0  0  0  0  0  0  0  0  0
   39.3145    8.1671   13.3375 H   0  0  0  0  0  0  0  0  0  0  0  0
   40.6987    7.4614   14.2391 H   0  0  0  0  0  0  0  0  0  0  0  0
   39.6456    5.2614   14.2464 H   0  0  0  0  0  0  0  0  0  0  0  0
   39.6834    5.8863   12.5628 H   0  0  0  0  0  0  0  0  0  0  0  0
  1  2  2  0  0  0  0
  2  3  1  0  0  0  0
  2  4  1  0  0  0  0
  4 30  1  0  0  0  0
  4  5  1  0  0  0  0
  5  6  1  0  0  0  0
  6  7  1  0  0  0  0
  7  8  1  0  0  0  0
  7 29  1  0  0  0  0
  8  9  1  0  0  0  0
  9 28  2  0  0  0  0
  9 10  1  0  0  0  0
 10 11  2  0  0  0  0
 11 12  1  0  0  0  0
 12 13  2  0  0  0  0
 13 14  1  0  0  0  0
 13 28  1  0  0  0  0
 14 26  2  0  0  0  0
 14 15  1  0  0  0  0
 15 16  1  0  0  0  0
 16 17  1  0  0  0  0
 16 20  2  0  0  0  0
 17 18  2  0  0  0  0
 17 19  1  0  0  0  0
 20 21  1  0  0  0  0
 20 26  1  0  0  0  0
 21 22  1  0  0  0  0
 22 23  1  0  0  0  0
 23 24  2  0  0  0  0
 23 25  1  0  0  0  0
 26 27  1  0  0  0  0
 29 30  1  0  0  0  0
  1 31  1  0  0  0  0
  1 32  1  0  0  0  0
  3 33  1  0  0  0  0
  5 34  1  0  0  0  0
  5 35  1  0  0  0  0
  6 36  1  0  0  0  0
  6 37  1  0  0  0  0
  7 38  1  0  0  0  0
  8 39  1  0  0  0  0
 10 40  1  0  0  0  0
 11 41  1  0  0  0  0
 12 42  1  0  0  0  0
 19 43  1  0  0  0  0
 22 44  1  0  0  0  0
 22 45  1  0  0  0  0
 25 46  1  0  0  0  0
 28 47  1  0  0  0  0
 29 48  1  0  0  0  0
 29 49  1  0  0  0  0
 30 50  1  0  0  0  0
 30 51  1  0  0  0  0
M  END
> <i_m_stars>
2

> <r_user_dG.exp>
-9.14235922654499

$$$$
23479
  -OEChem-05192314073D
 Structure written by MMmdl.
 51 53  0     0  0  0  0  0  0999 V2000
   35.5544    5.2757   12.3072 C   0  0  0  0  0  0  0  0  0  0  0  0
   37.0750    5.4456   12.2999 C   0  0  0  0  0  0  0  0  0  0  0  0
   37.6775    5.2201   11.2503 O   0  0  0  0  0  0  0  0  0  0  0  0
   37.7153    5.8364   13.4582 N   0  0  0  0  0  0  0  0  0  0  0  0
   37.0173    6.1412   14.7978 C   0  0  0  0  0  0  0  0  0  0  0  0
   37.3829    7.5402   15.3340 C   0  0  0  0  0  0  0  0  0  0  0  0
   38.9114    7.7621   15.4291 C   0  0  0  0  0  0  0  0  0  0  0  0
   39.1835    9.1385   15.8446 N   0  0  0  0  0  0  0  0  0  0  0  0
   40.4829    9.5699   16.1594 C   0  0  0  0  0  0  0  0  0  0  0  0
   41.4815    8.7321   16.6725 C   0  0  0  0  0  0  0  0  0  0  0  0
   42.7506    9.2417   16.9424 C   0  0  0  0  0  0  0  0  0  0  0  0
   43.0417   10.5800   16.6715 C   0  0  0  0  0  0  0  0  0  0  0  0
   42.0577   11.4350   16.1601 C   0  0  0  0  0  0  0  0  0  0  0  0
   42.3473   12.8247   15.8292 C   0  0  0  0  0  0  0  0  0  0  0  0
   43.4366   13.7822   16.8006 S   0  0  0  0  0  0  0  0  0  0  0  0
   43.2082   15.1991   15.7938 C   0  0  0  0  0  0  0  0  0  0  0  0
   43.9665   16.4136   16.1781 C   0  0  0  0  0  0  0  0  0  0  0  0
   44.7099   16.3644   17.1823 O   0  0  0  0  0  0  0  0  0  0  0  0
   43.8413   17.4562   15.4971 O   0  0  0  0  0  0  0  0  0  0  0  0
   42.3248   14.9326   14.7526 C   0  0  0  0  0  0  0  0  0  0  0  0
   41.9730   15.8282   13.8005 O   0  0  0  0  0  0  0  0  0  0  0  0
   40.8053   16.5939   14.0882 C   0  0  0  0  0  0  0  0  0  0  0  0
   40.2683   17.2823   12.8312 C   0  0  0  0  0  0  0  0  0  0  0  0
   40.8644   17.0551   11.7554 O   0  0  0  0  0  0  0  0  0  0  0  0
   39.2662   18.0188   12.9662 O   0  0  0  0  0  0  0  0  0  0  0  0
   41.8775   13.6145   14.7795 C   0  0  0  0  0  0  0  0  0  0  0  0
   40.7166   12.9520   13.4196 Br  0  0  0  0  0  0  0  0  0  0  0  0
   40.7764   10.9164   15.9496 C   0  0  0  0  0  0  0  0  0  0  0  0
   39.6099    7.4194   14.0884 C   0  0  0  0  0  0  0  0  0  0  0  0
   39.2402    6.0199   13.5606 C   0  0  0  0  0  0  0  0  0  0  0  0
   34.9947    5.4612   13.2120 H   0  0  0  0  0  0  0  0  0  0  0  0
   35.0408    4.9703   11.4075 H   0  0  0  0  0  0  0  0  0  0  0  0
   38.6076    5.3620   11.3818 H   0  0  0  0  0  0  0  0  0  0  0  0
   35.9284    6.0906   14.6505 H   0  0  0  0  0  0  0  0  0  0  0  0
   37.3227    5.3864   15.5373 H   0  0  0  0  0  0  0  0  0  0  0  0
   36.9585    8.2979   14.6588 H   0  0  0  0  0  0  0  0  0  0  0  0
   36.9471    7.6576   16.3371 H   0  0  0  0  0  0  0  0  0  0  0  0
   39.3027    7.0765   16.1952 H   0  0  0  0  0  0  0  0  0  0  0  0
   41.0967    8.3222   17.6180 H   0  0  0  0  0  0  0  0  0  0  0  0
   41.6150    7.9165   15.9466 H   0  0  0  0  0  0  0  0  0  0  0  0
   43.5107    8.5995   17.3622 H   0  0  0  0  0  0  0  0  0  0  0  0
   44.0354   10.9595   16.8582 H   0  0  0  0  0  0  0  0  0  0  0  0
   44.3812   18.1441   15.8683 H   0  0  0  0  0  0  0  0  0  0  0  0
   40.0291   15.9263   14.4905 H   0  0  0  0  0  0  0  0  0  0  0  0
   41.0546   17.3597   14.8374 H   0  0  0  0  0  0  0  0  0  0  0  0
   39.0240   18.3825   12.1227 H   0  0  0  0  0  0  0  0  0  0  0  0
   39.9914   11.5782   15.6148 H   0  0  0  0  0  0  0  0  0  0  0  0
   39.3145    8.1671   13.3375 H   0  0  0  0  0  0  0  0  0  0  0  0
   40.6987    7.4614   14.2391 H   0  0  0  0  0  0  0  0  0  0  0  0
   39.6456    5.2614   14.2464 H   0  0  0  0  0  0  0  0  0  0  0  0
   39.6834    5.8863   12.5628 H   0  0  0  0  0  0  0  0  0  0  0  0
  1  2  2  0  0  0  0
  2  3  1  0  0  0  0
  2  4  1  0  0  0  0
  4 30  1  0  0  0  0
  4  5  1  0  0  0  0
  5  6  1  0  0  0  0
  6  7  1  0  0  0  0
  7  8  1  0  0  0  0
  7 29  1  0  0  0  0
  8  9  2  0  0  0  0
  9 28  1  0  0  0  0
  9 10  1  0  0  0  0
 10 11  1  0  0  0  0
 11 12  2  0  0  0  0
 12 13  1  0  0  0  0
 13 14  1  0  0  0  0
 13 28  2  0  0  0  0
 14 26  2  0  0  0  0
 14 15  1  0  0  0  0
 15 16  1  0  0  0  0
 16 17  1  0  0  0  0
 16 20  2  0  0  0  0
 17 18  2  0  0  0  0
 17 19  1  0  0  0  0
 20 21  1  0  0  0  0
 20 26  1  0  0  0  0
 21 22  1  0  0  0  0
 22 23  1  0  0  0  0
 23 24  2  0  0  0  0
 23 25  1  0  0  0  0
 26 27  1  0  0  0  0
 29 30  1  0  0  0  0
  1 31  1  0  0  0  0
  1 32  1  0  0  0  0
  3 33  1  0  0  0  0
  5 34  1  0  0  0  0
  5 35  1  0  0  0  0
  6 36  1  0  0  0  0
  6 37  1  0  0  0  0
  7 38  1  0  0  0  0
 10 39  1  0  0  0  0
 10 40  1  0  0  0  0
 11 41  1  0  0  0  0
 12 42  1  0  0  0  0
 19 43  1  0  0  0  0
 22 44  1  0  0  0  0
 22 45  1  0  0  0  0
 25 46  1  0  0  0  0
 28 47  1  0  0  0  0
 29 48  1  0  0  0  0
 29 49  1  0  0  0  0
 30 50  1  0  0  0  0
 30 51  1  0  0  0  0
M  END
> <i_m_stars>
2

> <r_user_dG.exp>
-9.14235922654499

$$$$
23479
  -OEChem-05192314073D
 Structure written by MMmdl.
 51 53  0     0  0  0  0  0  0999 V2000
   35.5544    5.2757   12.3072 C   0  0  0  0  0  0  0  0  0  0  0  0
   37.0750    5.4456   12.2999 C   0  0  0  0  0  0  0  0  0  0  0  0
   37.6775    5.2201   11.2503 O   0  0  0  0  0  0  0  0  0  0  0  0
   37.7153    5.8364   13.4582 N   0  0  0  0  0  0  0  0  0  0  0  0
   37.0173    6.1412   14.7978 C   0  0  0  0  0  0  0  0  0  0  0  0
   37.3829    7.5402   15.3340 C   0  0  0  0  0  0  0  0  0  0  0  0
   38.9114    7.7621   15.4291 C   0  0  0  0  0  0  0  0  0  0  0  0
   39.1835    9.1385   15.8446 N   0  0  0  0  0  0  0  0  0  0  0  0
   40.4829    9.5699   16.1594 C   0  0  0  0  0  0  0  0  0  0  0  0
   41.4815    8.7321   16.6725 C   0  0  0  0  0  0  0  0  0  0  0  0
   42.7506    9.2417   16.9424 C   0  0  0  0  0  0  0  0  0  0  0  0
   43.0417   10.5800   16.6715 C   0  0  0  0  0  0  0  0  0  0  0  0
   42.0577   11.4350   16.1601 C   0  0  0  0  0  0  0  0  0  0  0  0
   42.3473   12.8247   15.8292 C   0  0  0  0  0  0  0  0  0  0  0  0
   43.4366   13.7822   16.8006 S   0  0  0  0  0  0  0  0  0  0  0  0
   43.2082   15.1991   15.7938 C   0  0  0  0  0  0  0  0  0  0  0  0
   43.9665   16.4136   16.1781 C   0  0  0  0  0  0  0  0  0  0  0  0
   44.7099   16.3644   17.1823 O   0  0  0  0  0  0  0  0  0  0  0  0
   43.8413   17.4562   15.4971 O   0  0  0  0  0  0  0  0  0  0  0  0
   42.3248   14.9326   14.7526 C   0  0  0  0  0  0  0  0  0  0  0  0
   41.9730   15.8282   13.8005 O   0  0  0  0  0  0  0  0  0  0  0  0
   40.8053   16.5939   14.0882 C   0  0  0  0  0  0  0  0  0  0  0  0
   40.2683   17.2823   12.8312 C   0  0  0  0  0  0  0  0  0  0  0  0
   40.8644   17.0551   11.7554 O   0  0  0  0  0  0  0  0  0  0  0  0
   39.2662   18.0188   12.9662 O   0  0  0  0  0  0  0  0  0  0  0  0
   41.8775   13.6145   14.7795 C   0  0  0  0  0  0  0  0  0  0  0  0
   40.7166   12.9520   13.4196 Br  0  0  0  0  0  0  0  0  0  0  0  0
   40.7764   10.9164   15.9496 C   0  0  0  0  0  0  0  0  0  0  0  0
   39.6099    7.4194   14.0884 C   0  0  0  0  0  0  0  0  0  0  0  0
   39.2402    6.0199   13.5606 C   0  0  0  0  0  0  0  0  0  0  0  0
   34.9947    5.4612   13.2120 H   0  0  0  0  0  0  0  0  0  0  0  0
   35.0408    4.9703   11.4075 H   0  0  0  0  0  0  0  0  0  0  0  0
   38.6076    5.3620   11.3818 H   0  0  0  0  0  0  0  0  0  0  0  0
   35.9284    6.0906   14.6505 H   0  0  0  0  0  0  0  0  0  0  0  0
   37.3227    5.3864   15.5373 H   0  0  0  0  0  0  0  0  0  0  0  0
   36.9585    8.2979   14.6588 H   0  0  0  0  0  0  0  0  0  0  0  0
   36.9471    7.6576   16.3371 H   0  0  0  0  0  0  0  0  0  0  0  0
   39.3027    7.0765   16.1952 H   0  0  0  0  0  0  0  0  0  0  0  0
   41.2679    7.6900   16.8592 H   0  0  0  0  0  0  0  0  0  0  0  0
   43.5107    8.5995   17.3622 H   0  0  0  0  0  0  0  0  0  0  0  0
   43.3843   11.0250   17.6173 H   0  0  0  0  0  0  0  0  0  0  0  0
   43.8678   10.5813   15.9452 H   0  0  0  0  0  0  0  0  0  0  0  0
   44.3812   18.1441   15.8683 H   0  0  0  0  0  0  0  0  0  0  0  0
   40.0291   15.9263   14.4905 H   0  0  0  0  0  0  0  0  0  0  0  0
   41.0546   17.3597   14.8374 H   0  0  0  0  0  0  0  0  0  0  0  0
   39.0240   18.3825   12.1227 H   0  0  0  0  0  0  0  0  0  0  0  0
   39.9914   11.5782   15.6148 H   0  0  0  0  0  0  0  0  0  0  0  0
   39.3145    8.1671   13.3375 H   0  0  0  0  0  0  0  0  0  0  0  0
   40.6987    7.4614   14.2391 H   0  0  0  0  0  0  0  0  0  0  0  0
   39.6456    5.2614   14.2464 H   0  0  0  0  0  0  0  0  0  0  0  0
   39.6834    5.8863   12.5628 H   0  0  0  0  0  0  0  0  0  0  0  0
  1  2  2  0  0  0  0
  2  3  1  0  0  0  0
  2  4  1  0  0  0  0
  4 30  1  0  0  0  0
  4  5  1  0  0  0  0
  5  6  1  0  0  0  0
  6  7  1  0  0  0  0
  7  8  1  0  0  0  0
  7 29  1  0  0  0  0
  8  9  2  0  0  0  0
  9 28  1  0  0  0  0
  9 10  1  0  0  0  0
 10 11  2  0  0  0  0
 11 12  1  0  0  0  0
 12 13  1  0  0  0  0
 13 14  1  0  0  0  0
 13 28  2  0  0  0  0
 14 26  2  0  0  0  0
 14 15  1  0  0  0  0
 15 16  1  0  0  0  0
 16 17  1  0  0  0  0
 16 20  2  0  0  0  0
 17 18  2  0  0  0  0
 17 19  1  0  0  0  0
 20 21  1  0  0  0  0
 20 26  1  0  0  0  0
 21 22  1  0  0  0  0
 22 23  1  0  0  0  0
 23 24  2  0  0  0  0
 23 25  1  0  0  0  0
 26 27  1  0  0  0  0
 29 30  1  0  0  0  0
  1 31  1  0  0  0  0
  1 32  1  0  0  0  0
  3 33  1  0  0  0  0
  5 34  1  0  0  0  0
  5 35  1  0  0  0  0
  6 36  1  0  0  0  0
  6 37  1  0  0  0  0
  7 38  1  0  0  0  0
 10 39  1  0  0  0  0
 11 40  1  0  0  0  0
 12 41  1  0  0  0  0
 12 42  1  0  0  0  0
 19 43  1  0  0  0  0
 22 44  1  0  0  0  0
 22 45  1  0  0  0  0
 25 46  1  0  0  0  0
 28 47  1  0  0  0  0
 29 48  1  0  0  0  0
 29 49  1  0  0  0  0
 30 50  1  0  0  0  0
 30 51  1  0  0  0  0
M  END
> <i_m_stars>
2

> <r_user_dG.exp>
-9.14235922654499

$$$$
23479
  -OEChem-05192314073D
 Structure written by MMmdl.
 51 53  0     0  0  0  0  0  0999 V2000
   35.5544    5.2757   12.3072 C   0  0  0  0  0  0  0  0  0  0  0  0
   37.0750    5.4456   12.2999 C   0  0  0  0  0  0  0  0  0  0  0  0
   37.6775    5.2201   11.2503 O   0  0  0  0  0  0  0  0  0  0  0  0
   37.7153    5.8364   13.4582 N   0  0  0  0  0  0  0  0  0  0  0  0
   37.0173    6.1412   14.7978 C   0  0  0  0  0  0  0  0  0  0  0  0
   37.3829    7.5402   15.3340 C   0  0  0  0  0  0  0  0  0  0  0  0
   38.9114    7.7621   15.4291 C   0  0  0  0  0  0  0  0  0  0  0  0
   39.1835    9.1385   15.8446 N   0  0  0  0  0  0  0  0  0  0  0  0
   40.4829    9.5699   16.1594 C   0  0  0  0  0  0  0  0  0  0  0  0
   41.4815    8.7321   16.6725 C   0  0  0  0  0  0  0  0  0  0  0  0
   42.7506    9.2417   16.9424 C   0  0  0  0  0  0  0  0  0  0  0  0
   43.0417   10.5800   16.6715 C   0  0  0  0  0  0  0  0  0  0  0  0
   42.0577   11.4350   16.1601 C   0  0  0  0  0  0  0  0  0  0  0  0
   42.3473   12.8247   15.8292 C   0  0  0  0  0  0  0  0  0  0  0  0
   43.4366   13.7822   16.8006 S   0  0  0  0  0  0  0  0  0  0  0  0
   43.2082   15.1991   15.7938 C   0  0  0  0  0  0  0  0  0  0  0  0
   43.9665   16.4136   16.1781 C   0  0  0  0  0  0  0  0  0  0  0  0
   44.7099   16.3644   17.1823 O   0  0  0  0  0  0  0  0  0  0  0  0
   43.8413   17.4562   15.4971 O   0  0  0  0  0  0  0  0  0  0  0  0
   42.3248   14.9326   14.7526 C   0  0  0  0  0  0  0  0  0  0  0  0
   41.9730   15.8282   13.8005 O   0  0  0  0  0  0  0  0  0  0  0  0
   40.8053   16.5939   14.0882 C   0  0  0  0  0  0  0  0  0  0  0  0
   40.2683   17.2823   12.8312 C   0  0  0  0  0  0  0  0  0  0  0  0
   40.8644   17.0551   11.7554 O   0  0  0  0  0  0  0  0  0  0  0  0
   39.2662   18.0188   12.9662 O   0  0  0  0  0  0  0  0  0  0  0  0
   41.8775   13.6145   14.7795 C   0  0  0  0  0  0  0  0  0  0  0  0
   40.7166   12.9520   13.4196 Br  0  0  0  0  0  0  0  0  0  0  0  0
   40.7764   10.9164   15.9496 C   0  0  0  0  0  0  0  0  0  0  0  0
   39.6099    7.4194   14.0884 C   0  0  0  0  0  0  0  0  0  0  0  0
   39.2402    6.0199   13.5606 C   0  0  0  0  0  0  0  0  0  0  0  0
   34.9947    5.4612   13.2120 H   0  0  0  0  0  0  0  0  0  0  0  0
   35.0408    4.9703   11.4075 H   0  0  0  0  0  0  0  0  0  0  0  0
   38.6076    5.3620   11.3818 H   0  0  0  0  0  0  0  0  0  0  0  0
   35.9284    6.0906   14.6505 H   0  0  0  0  0  0  0  0  0  0  0  0
   37.3227    5.3864   15.5373 H   0  0  0  0  0  0  0  0  0  0  0  0
   36.9585    8.2979   14.6588 H   0  0  0  0  0  0  0  0  0  0  0  0
   36.9471    7.6576   16.3371 H   0  0  0  0  0  0  0  0  0  0  0  0
   39.3027    7.0765   16.1952 H   0  0  0  0  0  0  0  0  0  0  0  0
   41.2679    7.6900   16.8592 H   0  0  0  0  0  0  0  0  0  0  0  0
   43.5107    8.5995   17.3622 H   0  0  0  0  0  0  0  0  0  0  0  0
   44.0354   10.9595   16.8582 H   0  0  0  0  0  0  0  0  0  0  0  0
   44.3812   18.1441   15.8683 H   0  0  0  0  0  0  0  0  0  0  0  0
   40.0291   15.9263   14.4905 H   0  0  0  0  0  0  0  0  0  0  0  0
   41.0546   17.3597   14.8374 H   0  0  0  0  0  0  0  0  0  0  0  0
   39.0240   18.3825   12.1227 H   0  0  0  0  0  0  0  0  0  0  0  0
   40.5277   11.1261   14.8988 H   0  0  0  0  0  0  0  0  0  0  0  0
   40.1018   11.4850   16.6066 H   0  0  0  0  0  0  0  0  0  0  0  0
   39.3145    8.1671   13.3375 H   0  0  0  0  0  0  0  0  0  0  0  0
   40.6987    7.4614   14.2391 H   0  0  0  0  0  0  0  0  0  0  0  0
   39.6456    5.2614   14.2464 H   0  0  0  0  0  0  0  0  0  0  0  0
   39.6834    5.8863   12.5628 H   0  0  0  0  0  0  0  0  0  0  0  0
  1  2  2  0  0  0  0
  2  3  1  0  0  0  0
  2  4  1  0  0  0  0
  4 30  1  0  0  0  0
  4  5  1  0  0  0  0
  5  6  1  0  0  0  0
  6  7  1  0  0  0  0
  7  8  1  0  0  0  0
  7 29  1  0  0  0  0
  8  9  2  0  0  0  0
  9 28  1  0  0  0  0
  9 10  1  0  0  0  0
 10 11  2  0  0  0  0
 11 12  1  0  0  0  0
 12 13  2  0  0  0  0
 13 14  1  0  0  0  0
 13 28  1  0  0  0  0
 14 26  2  0  0  0  0
 14 15  1  0  0  0  0
 15 16  1  0  0  0  0
 16 17  1  0  0  0  0
 16 20  2  0  0  0  0
 17 18  2  0  0  0  0
 17 19  1  0  0  0  0
 20 21  1  0  0  0  0
 20 26  1  0  0  0  0
 21 22  1  0  0  0  0
 22 23  1  0  0  0  0
 23 24  2  0  0  0  0
 23 25  1  0  0  0  0
 26 27  1  0  0  0  0
 29 30  1  0  0  0  0
  1 31  1  0  0  0  0
  1 32  1  0  0  0  0
  3 33  1  0  0  0  0
  5 34  1  0  0  0  0
  5 35  1  0  0  0  0
  6 36  1  0  0  0  0
  6 37  1  0  0  0  0
  7 38  1  0  0  0  0
 10 39  1  0  0  0  0
 11 40  1  0  0  0  0
 12 41  1  0  0  0  0
 19 42  1  0  0  0  0
 22 43  1  0  0  0  0
 22 44  1  0  0  0  0
 25 45  1  0  0  0  0
 28 46  1  0  0  0  0
 28 47  1  0  0  0  0
 29 48  1  0  0  0  0
 29 49  1  0  0  0  0
 30 50  1  0  0  0  0
 30 51  1  0  0  0  0
M  END
> <i_m_stars>
2

> <r_user_dG.exp>
-9.14235922654499

$$$$
