23476
  -OEChem-05162309453D
 Structure written by MMmdl.
 50 52  0     0  0  0  0  0  0999 V2000
   41.4867   17.7482   12.0673 O   0  0  0  0  0  0  0  0  0  0  0  0
   40.5664   17.5761   12.8964 C   0  0  0  0  0  0  0  0  0  0  0  0
   39.4855   18.2052   12.9246 O   0  0  0  0  0  0  0  0  0  0  0  0
   40.7845   16.5110   13.9735 C   0  0  0  0  0  0  0  0  0  0  0  0
   42.0386   15.8543   13.8050 O   0  0  0  0  0  0  0  0  0  0  0  0
   42.3405   14.9357   14.7523 C   0  0  0  0  0  0  0  0  0  0  0  0
   41.9226   13.5730   14.6979 C   0  0  0  0  0  0  0  0  0  0  0  0
   40.9097   12.8861   13.2359 Br  0  0  0  0  0  0  0  0  0  0  0  0
   42.2783   12.8150   15.7837 C   0  0  0  0  0  0  0  0  0  0  0  0
   42.0207   11.4118   16.0935 C   0  0  0  0  0  0  0  0  0  0  0  0
   43.0285   10.6016   16.6613 C   0  0  0  0  0  0  0  0  0  0  0  0
   42.7790    9.2486   16.9615 C   0  0  0  0  0  0  0  0  0  0  0  0
   41.5154    8.6893   16.6954 C   0  0  0  0  0  0  0  0  0  0  0  0
   40.5019    9.4854   16.1279 C   0  0  0  0  0  0  0  0  0  0  0  0
   39.2615    8.8686   15.8845 N   0  0  0  0  0  0  0  0  0  0  0  0
   39.0017    7.4432   15.9074 C   0  0  0  0  0  0  0  0  0  0  0  0
   37.8800    7.0952   16.9015 C   0  0  0  0  0  0  0  0  0  0  0  0
   37.8402    5.6235   17.3408 C   0  0  0  0  0  0  0  0  0  0  0  0
   37.7134    4.6087   16.1910 C   0  0  0  0  0  0  0  0  0  0  0  0
   39.0143    4.4568   15.3854 C   0  0  0  0  0  0  0  0  0  0  0  0
   39.2002    5.4613   14.2336 C   0  0  0  0  0  0  0  0  0  0  0  0
   38.7313    6.9046   14.4928 C   0  0  0  0  0  0  0  0  0  0  0  0
   40.7562   10.8392   15.8293 C   0  0  0  0  0  0  0  0  0  0  0  0
   43.1753   13.7863   16.9220 S   0  0  0  0  0  0  0  0  0  0  0  0
   43.0446   15.2094   15.9038 C   0  0  0  0  0  0  0  0  0  0  0  0
   43.6741   16.4501   16.4156 C   0  0  0  0  0  0  0  0  0  0  0  0
   44.2669   16.4128   17.5159 O   0  0  0  0  0  0  0  0  0  0  0  0
   43.6044   17.4989   15.7361 O   0  0  0  0  0  0  0  0  0  0  0  0
   39.4684   18.8381   12.2164 H   0  0  0  0  0  0  0  0  0  0  0  0
   40.7615   16.9916   14.9627 H   0  0  0  0  0  0  0  0  0  0  0  0
   39.9781   15.7657   13.9091 H   0  0  0  0  0  0  0  0  0  0  0  0
   44.0008   11.0241   16.8675 H   0  0  0  0  0  0  0  0  0  0  0  0
   43.5579    8.6398   17.3962 H   0  0  0  0  0  0  0  0  0  0  0  0
   41.3234    7.6518   16.9259 H   0  0  0  0  0  0  0  0  0  0  0  0
   38.6367    9.2601   16.5600 H   0  0  0  0  0  0  0  0  0  0  0  0
   39.9116    6.9416   16.2687 H   0  0  0  0  0  0  0  0  0  0  0  0
   38.0139    7.7165   17.7993 H   0  0  0  0  0  0  0  0  0  0  0  0
   36.9168    7.3370   16.4285 H   0  0  0  0  0  0  0  0  0  0  0  0
   38.7686    5.4050   17.8889 H   0  0  0  0  0  0  0  0  0  0  0  0
   36.9785    5.4900   18.0113 H   0  0  0  0  0  0  0  0  0  0  0  0
   37.4456    3.6294   16.6143 H   0  0  0  0  0  0  0  0  0  0  0  0
   36.9163    4.9449   15.5116 H   0  0  0  0  0  0  0  0  0  0  0  0
   39.8591    4.5767   16.0796 H   0  0  0  0  0  0  0  0  0  0  0  0
   39.0321    3.4435   14.9578 H   0  0  0  0  0  0  0  0  0  0  0  0
   40.2729    5.4975   13.9927 H   0  0  0  0  0  0  0  0  0  0  0  0
   38.6421    5.0803   13.3656 H   0  0  0  0  0  0  0  0  0  0  0  0
   37.6464    6.9456   14.3159 H   0  0  0  0  0  0  0  0  0  0  0  0
   39.2448    7.5620   13.7757 H   0  0  0  0  0  0  0  0  0  0  0  0
   39.9759   11.4456   15.3937 H   0  0  0  0  0  0  0  0  0  0  0  0
   44.0560   18.2011   16.1895 H   0  0  0  0  0  0  0  0  0  0  0  0
  1  2  2  0  0  0  0
  2  3  1  0  0  0  0
  2  4  1  0  0  0  0
  4  5  1  0  0  0  0
  5  6  1  0  0  0  0
  6 25  2  0  0  0  0
  6  7  1  0  0  0  0
  7  8  1  0  0  0  0
  7  9  2  0  0  0  0
  9 10  1  0  0  0  0
  9 24  1  0  0  0  0
 10 23  2  0  0  0  0
 10 11  1  0  0  0  0
 11 12  2  0  0  0  0
 12 13  1  0  0  0  0
 13 14  2  0  0  0  0
 14 15  1  0  0  0  0
 14 23  1  0  0  0  0
 15 16  1  0  0  0  0
 16 22  1  0  0  0  0
 16 17  1  0  0  0  0
 17 18  1  0  0  0  0
 18 19  1  0  0  0  0
 19 20  1  0  0  0  0
 20 21  1  0  0  0  0
 21 22  1  0  0  0  0
 24 25  1  0  0  0  0
 25 26  1  0  0  0  0
 26 27  2  0  0  0  0
 26 28  1  0  0  0  0
  3 29  1  0  0  0  0
  4 30  1  0  0  0  0
  4 31  1  0  0  0  0
 11 32  1  0  0  0  0
 12 33  1  0  0  0  0
 13 34  1  0  0  0  0
 15 35  1  0  0  0  0
 16 36  1  0  0  0  0
 17 37  1  0  0  0  0
 17 38  1  0  0  0  0
 18 39  1  0  0  0  0
 18 40  1  0  0  0  0
 19 41  1  0  0  0  0
 19 42  1  0  0  0  0
 20 43  1  0  0  0  0
 20 44  1  0  0  0  0
 21 45  1  0  0  0  0
 21 46  1  0  0  0  0
 22 47  1  0  0  0  0
 22 48  1  0  0  0  0
 23 49  1  0  0  0  0
 28 50  1  0  0  0  0
M  END
> <i_m_stars>
2

> <r_user_dG.exp>
-9.4138211030936

$$$$
23476
  -OEChem-05162309453D
 Structure written by MMmdl.
 50 52  0     0  0  0  0  0  0999 V2000
   41.4867   17.7482   12.0673 O   0  0  0  0  0  0  0  0  0  0  0  0
   40.5664   17.5761   12.8964 C   0  0  0  0  0  0  0  0  0  0  0  0
   39.4855   18.2052   12.9246 O   0  0  0  0  0  0  0  0  0  0  0  0
   40.7845   16.5110   13.9735 C   0  0  0  0  0  0  0  0  0  0  0  0
   42.0386   15.8543   13.8050 O   0  0  0  0  0  0  0  0  0  0  0  0
   42.3405   14.9357   14.7523 C   0  0  0  0  0  0  0  0  0  0  0  0
   41.9226   13.5730   14.6979 C   0  0  0  0  0  0  0  0  0  0  0  0
   40.9097   12.8861   13.2359 Br  0  0  0  0  0  0  0  0  0  0  0  0
   42.2783   12.8150   15.7837 C   0  0  0  0  0  0  0  0  0  0  0  0
   42.0207   11.4118   16.0935 C   0  0  0  0  0  0  0  0  0  0  0  0
   43.0285   10.6016   16.6613 C   0  0  0  0  0  0  0  0  0  0  0  0
   42.7790    9.2486   16.9615 C   0  0  0  0  0  0  0  0  0  0  0  0
   41.5154    8.6893   16.6954 C   0  0  0  0  0  0  0  0  0  0  0  0
   40.5019    9.4854   16.1279 C   0  0  0  0  0  0  0  0  0  0  0  0
   39.2615    8.8686   15.8845 N   0  0  0  0  0  0  0  0  0  0  0  0
   39.0017    7.4432   15.9074 C   0  0  0  0  0  0  0  0  0  0  0  0
   37.8800    7.0952   16.9015 C   0  0  0  0  0  0  0  0  0  0  0  0
   37.8402    5.6235   17.3408 C   0  0  0  0  0  0  0  0  0  0  0  0
   37.7134    4.6087   16.1910 C   0  0  0  0  0  0  0  0  0  0  0  0
   39.0143    4.4568   15.3854 C   0  0  0  0  0  0  0  0  0  0  0  0
   39.2002    5.4613   14.2336 C   0  0  0  0  0  0  0  0  0  0  0  0
   38.7313    6.9046   14.4928 C   0  0  0  0  0  0  0  0  0  0  0  0
   40.7562   10.8392   15.8293 C   0  0  0  0  0  0  0  0  0  0  0  0
   43.1753   13.7863   16.9220 S   0  0  0  0  0  0  0  0  0  0  0  0
   43.0446   15.2094   15.9038 C   0  0  0  0  0  0  0  0  0  0  0  0
   43.6741   16.4501   16.4156 C   0  0  0  0  0  0  0  0  0  0  0  0
   44.2669   16.4128   17.5159 O   0  0  0  0  0  0  0  0  0  0  0  0
   43.6044   17.4989   15.7361 O   0  0  0  0  0  0  0  0  0  0  0  0
   39.4684   18.8381   12.2164 H   0  0  0  0  0  0  0  0  0  0  0  0
   40.7615   16.9916   14.9627 H   0  0  0  0  0  0  0  0  0  0  0  0
   39.9781   15.7657   13.9091 H   0  0  0  0  0  0  0  0  0  0  0  0
   44.0008   11.0241   16.8675 H   0  0  0  0  0  0  0  0  0  0  0  0
   43.5579    8.6398   17.3962 H   0  0  0  0  0  0  0  0  0  0  0  0
   41.6790    7.8454   16.0090 H   0  0  0  0  0  0  0  0  0  0  0  0
   41.1259    8.3130   17.6528 H   0  0  0  0  0  0  0  0  0  0  0  0
   39.9116    6.9416   16.2687 H   0  0  0  0  0  0  0  0  0  0  0  0
   38.0139    7.7165   17.7993 H   0  0  0  0  0  0  0  0  0  0  0  0
   36.9168    7.3370   16.4285 H   0  0  0  0  0  0  0  0  0  0  0  0
   38.7686    5.4050   17.8889 H   0  0  0  0  0  0  0  0  0  0  0  0
   36.9785    5.4900   18.0113 H   0  0  0  0  0  0  0  0  0  0  0  0
   37.4456    3.6294   16.6143 H   0  0  0  0  0  0  0  0  0  0  0  0
   36.9163    4.9449   15.5116 H   0  0  0  0  0  0  0  0  0  0  0  0
   39.8591    4.5767   16.0796 H   0  0  0  0  0  0  0  0  0  0  0  0
   39.0321    3.4435   14.9578 H   0  0  0  0  0  0  0  0  0  0  0  0
   40.2729    5.4975   13.9927 H   0  0  0  0  0  0  0  0  0  0  0  0
   38.6421    5.0803   13.3656 H   0  0  0  0  0  0  0  0  0  0  0  0
   37.6464    6.9456   14.3159 H   0  0  0  0  0  0  0  0  0  0  0  0
   39.2448    7.5620   13.7757 H   0  0  0  0  0  0  0  0  0  0  0  0
   39.9759   11.4456   15.3937 H   0  0  0  0  0  0  0  0  0  0  0  0
   44.0560   18.2011   16.1895 H   0  0  0  0  0  0  0  0  0  0  0  0
  1  2  2  0  0  0  0
  2  3  1  0  0  0  0
  2  4  1  0  0  0  0
  4  5  1  0  0  0  0
  5  6  1  0  0  0  0
  6 25  2  0  0  0  0
  6  7  1  0  0  0  0
  7  8  1  0  0  0  0
  7  9  2  0  0  0  0
  9 10  1  0  0  0  0
  9 24  1  0  0  0  0
 10 23  2  0  0  0  0
 10 11  1  0  0  0  0
 11 12  2  0  0  0  0
 12 13  1  0  0  0  0
 13 14  1  0  0  0  0
 14 15  2  0  0  0  0
 14 23  1  0  0  0  0
 15 16  1  0  0  0  0
 16 22  1  0  0  0  0
 16 17  1  0  0  0  0
 17 18  1  0  0  0  0
 18 19  1  0  0  0  0
 19 20  1  0  0  0  0
 20 21  1  0  0  0  0
 21 22  1  0  0  0  0
 24 25  1  0  0  0  0
 25 26  1  0  0  0  0
 26 27  2  0  0  0  0
 26 28  1  0  0  0  0
  3 29  1  0  0  0  0
  4 30  1  0  0  0  0
  4 31  1  0  0  0  0
 11 32  1  0  0  0  0
 12 33  1  0  0  0  0
 13 34  1  0  0  0  0
 13 35  1  0  0  0  0
 16 36  1  0  0  0  0
 17 37  1  0  0  0  0
 17 38  1  0  0  0  0
 18 39  1  0  0  0  0
 18 40  1  0  0  0  0
 19 41  1  0  0  0  0
 19 42  1  0  0  0  0
 20 43  1  0  0  0  0
 20 44  1  0  0  0  0
 21 45  1  0  0  0  0
 21 46  1  0  0  0  0
 22 47  1  0  0  0  0
 22 48  1  0  0  0  0
 23 49  1  0  0  0  0
 28 50  1  0  0  0  0
M  END
> <i_m_stars>
2

> <r_user_dG.exp>
-9.4138211030936

$$$$
23476
  -OEChem-05162309453D
 Structure written by MMmdl.
 50 52  0     0  0  0  0  0  0999 V2000
   41.4867   17.7482   12.0673 O   0  0  0  0  0  0  0  0  0  0  0  0
   40.5664   17.5761   12.8964 C   0  0  0  0  0  0  0  0  0  0  0  0
   39.4855   18.2052   12.9246 O   0  0  0  0  0  0  0  0  0  0  0  0
   40.7845   16.5110   13.9735 C   0  0  0  0  0  0  0  0  0  0  0  0
   42.0386   15.8543   13.8050 O   0  0  0  0  0  0  0  0  0  0  0  0
   42.3405   14.9357   14.7523 C   0  0  0  0  0  0  0  0  0  0  0  0
   41.9226   13.5730   14.6979 C   0  0  0  0  0  0  0  0  0  0  0  0
   40.9097   12.8861   13.2359 Br  0  0  0  0  0  0  0  0  0  0  0  0
   42.2783   12.8150   15.7837 C   0  0  0  0  0  0  0  0  0  0  0  0
   42.0207   11.4118   16.0935 C   0  0  0  0  0  0  0  0  0  0  0  0
   43.0285   10.6016   16.6613 C   0  0  0  0  0  0  0  0  0  0  0  0
   42.7790    9.2486   16.9615 C   0  0  0  0  0  0  0  0  0  0  0  0
   41.5154    8.6893   16.6954 C   0  0  0  0  0  0  0  0  0  0  0  0
   40.5019    9.4854   16.1279 C   0  0  0  0  0  0  0  0  0  0  0  0
   39.2615    8.8686   15.8845 N   0  0  0  0  0  0  0  0  0  0  0  0
   39.0017    7.4432   15.9074 C   0  0  0  0  0  0  0  0  0  0  0  0
   37.8800    7.0952   16.9015 C   0  0  0  0  0  0  0  0  0  0  0  0
   37.8402    5.6235   17.3408 C   0  0  0  0  0  0  0  0  0  0  0  0
   37.7134    4.6087   16.1910 C   0  0  0  0  0  0  0  0  0  0  0  0
   39.0143    4.4568   15.3854 C   0  0  0  0  0  0  0  0  0  0  0  0
   39.2002    5.4613   14.2336 C   0  0  0  0  0  0  0  0  0  0  0  0
   38.7313    6.9046   14.4928 C   0  0  0  0  0  0  0  0  0  0  0  0
   40.7562   10.8392   15.8293 C   0  0  0  0  0  0  0  0  0  0  0  0
   43.1753   13.7863   16.9220 S   0  0  0  0  0  0  0  0  0  0  0  0
   43.0446   15.2094   15.9038 C   0  0  0  0  0  0  0  0  0  0  0  0
   43.6741   16.4501   16.4156 C   0  0  0  0  0  0  0  0  0  0  0  0
   44.2669   16.4128   17.5159 O   0  0  0  0  0  0  0  0  0  0  0  0
   43.6044   17.4989   15.7361 O   0  0  0  0  0  0  0  0  0  0  0  0
   39.4684   18.8381   12.2164 H   0  0  0  0  0  0  0  0  0  0  0  0
   40.7615   16.9916   14.9627 H   0  0  0  0  0  0  0  0  0  0  0  0
   39.9781   15.7657   13.9091 H   0  0  0  0  0  0  0  0  0  0  0  0
   43.8760   10.6168   15.9602 H   0  0  0  0  0  0  0  0  0  0  0  0
   43.3245   11.0834   17.6048 H   0  0  0  0  0  0  0  0  0  0  0  0
   43.5579    8.6398   17.3962 H   0  0  0  0  0  0  0  0  0  0  0  0
   41.3234    7.6518   16.9259 H   0  0  0  0  0  0  0  0  0  0  0  0
   39.9116    6.9416   16.2687 H   0  0  0  0  0  0  0  0  0  0  0  0
   38.0139    7.7165   17.7993 H   0  0  0  0  0  0  0  0  0  0  0  0
   36.9168    7.3370   16.4285 H   0  0  0  0  0  0  0  0  0  0  0  0
   38.7686    5.4050   17.8889 H   0  0  0  0  0  0  0  0  0  0  0  0
   36.9785    5.4900   18.0113 H   0  0  0  0  0  0  0  0  0  0  0  0
   37.4456    3.6294   16.6143 H   0  0  0  0  0  0  0  0  0  0  0  0
   36.9163    4.9449   15.5116 H   0  0  0  0  0  0  0  0  0  0  0  0
   39.8591    4.5767   16.0796 H   0  0  0  0  0  0  0  0  0  0  0  0
   39.0321    3.4435   14.9578 H   0  0  0  0  0  0  0  0  0  0  0  0
   40.2729    5.4975   13.9927 H   0  0  0  0  0  0  0  0  0  0  0  0
   38.6421    5.0803   13.3656 H   0  0  0  0  0  0  0  0  0  0  0  0
   37.6464    6.9456   14.3159 H   0  0  0  0  0  0  0  0  0  0  0  0
   39.2448    7.5620   13.7757 H   0  0  0  0  0  0  0  0  0  0  0  0
   39.9759   11.4456   15.3937 H   0  0  0  0  0  0  0  0  0  0  0  0
   44.0560   18.2011   16.1895 H   0  0  0  0  0  0  0  0  0  0  0  0
  1  2  2  0  0  0  0
  2  3  1  0  0  0  0
  2  4  1  0  0  0  0
  4  5  1  0  0  0  0
  5  6  1  0  0  0  0
  6 25  2  0  0  0  0
  6  7  1  0  0  0  0
  7  8  1  0  0  0  0
  7  9  2  0  0  0  0
  9 10  1  0  0  0  0
  9 24  1  0  0  0  0
 10 23  2  0  0  0  0
 10 11  1  0  0  0  0
 11 12  1  0  0  0  0
 12 13  2  0  0  0  0
 13 14  1  0  0  0  0
 14 15  2  0  0  0  0
 14 23  1  0  0  0  0
 15 16  1  0  0  0  0
 16 22  1  0  0  0  0
 16 17  1  0  0  0  0
 17 18  1  0  0  0  0
 18 19  1  0  0  0  0
 19 20  1  0  0  0  0
 20 21  1  0  0  0  0
 21 22  1  0  0  0  0
 24 25  1  0  0  0  0
 25 26  1  0  0  0  0
 26 27  2  0  0  0  0
 26 28  1  0  0  0  0
  3 29  1  0  0  0  0
  4 30  1  0  0  0  0
  4 31  1  0  0  0  0
 11 32  1  0  0  0  0
 11 33  1  0  0  0  0
 12 34  1  0  0  0  0
 13 35  1  0  0  0  0
 16 36  1  0  0  0  0
 17 37  1  0  0  0  0
 17 38  1  0  0  0  0
 18 39  1  0  0  0  0
 18 40  1  0  0  0  0
 19 41  1  0  0  0  0
 19 42  1  0  0  0  0
 20 43  1  0  0  0  0
 20 44  1  0  0  0  0
 21 45  1  0  0  0  0
 21 46  1  0  0  0  0
 22 47  1  0  0  0  0
 22 48  1  0  0  0  0
 23 49  1  0  0  0  0
 28 50  1  0  0  0  0
M  END
> <i_m_stars>
2

> <r_user_dG.exp>
-9.4138211030936

$$$$
23476
  -OEChem-05162309453D
 Structure written by MMmdl.
 50 52  0     0  0  0  0  0  0999 V2000
   41.4867   17.7482   12.0673 O   0  0  0  0  0  0  0  0  0  0  0  0
   40.5664   17.5761   12.8964 C   0  0  0  0  0  0  0  0  0  0  0  0
   39.4855   18.2052   12.9246 O   0  0  0  0  0  0  0  0  0  0  0  0
   40.7845   16.5110   13.9735 C   0  0  0  0  0  0  0  0  0  0  0  0
   42.0386   15.8543   13.8050 O   0  0  0  0  0  0  0  0  0  0  0  0
   42.3405   14.9357   14.7523 C   0  0  0  0  0  0  0  0  0  0  0  0
   41.9226   13.5730   14.6979 C   0  0  0  0  0  0  0  0  0  0  0  0
   40.9097   12.8861   13.2359 Br  0  0  0  0  0  0  0  0  0  0  0  0
   42.2783   12.8150   15.7837 C   0  0  0  0  0  0  0  0  0  0  0  0
   42.0207   11.4118   16.0935 C   0  0  0  0  0  0  0  0  0  0  0  0
   43.0285   10.6016   16.6613 C   0  0  0  0  0  0  0  0  0  0  0  0
   42.7790    9.2486   16.9615 C   0  0  0  0  0  0  0  0  0  0  0  0
   41.5154    8.6893   16.6954 C   0  0  0  0  0  0  0  0  0  0  0  0
   40.5019    9.4854   16.1279 C   0  0  0  0  0  0  0  0  0  0  0  0
   39.2615    8.8686   15.8845 N   0  0  0  0  0  0  0  0  0  0  0  0
   39.0017    7.4432   15.9074 C   0  0  0  0  0  0  0  0  0  0  0  0
   37.8800    7.0952   16.9015 C   0  0  0  0  0  0  0  0  0  0  0  0
   37.8402    5.6235   17.3408 C   0  0  0  0  0  0  0  0  0  0  0  0
   37.7134    4.6087   16.1910 C   0  0  0  0  0  0  0  0  0  0  0  0
   39.0143    4.4568   15.3854 C   0  0  0  0  0  0  0  0  0  0  0  0
   39.2002    5.4613   14.2336 C   0  0  0  0  0  0  0  0  0  0  0  0
   38.7313    6.9046   14.4928 C   0  0  0  0  0  0  0  0  0  0  0  0
   40.7562   10.8392   15.8293 C   0  0  0  0  0  0  0  0  0  0  0  0
   43.1753   13.7863   16.9220 S   0  0  0  0  0  0  0  0  0  0  0  0
   43.0446   15.2094   15.9038 C   0  0  0  0  0  0  0  0  0  0  0  0
   43.6741   16.4501   16.4156 C   0  0  0  0  0  0  0  0  0  0  0  0
   44.2669   16.4128   17.5159 O   0  0  0  0  0  0  0  0  0  0  0  0
   43.6044   17.4989   15.7361 O   0  0  0  0  0  0  0  0  0  0  0  0
   39.4684   18.8381   12.2164 H   0  0  0  0  0  0  0  0  0  0  0  0
   40.7615   16.9916   14.9627 H   0  0  0  0  0  0  0  0  0  0  0  0
   39.9781   15.7657   13.9091 H   0  0  0  0  0  0  0  0  0  0  0  0
   44.0008   11.0241   16.8675 H   0  0  0  0  0  0  0  0  0  0  0  0
   43.5579    8.6398   17.3962 H   0  0  0  0  0  0  0  0  0  0  0  0
   41.3234    7.6518   16.9259 H   0  0  0  0  0  0  0  0  0  0  0  0
   39.9116    6.9416   16.2687 H   0  0  0  0  0  0  0  0  0  0  0  0
   38.0139    7.7165   17.7993 H   0  0  0  0  0  0  0  0  0  0  0  0
   36.9168    7.3370   16.4285 H   0  0  0  0  0  0  0  0  0  0  0  0
   38.7686    5.4050   17.8889 H   0  0  0  0  0  0  0  0  0  0  0  0
   36.9785    5.4900   18.0113 H   0  0  0  0  0  0  0  0  0  0  0  0
   37.4456    3.6294   16.6143 H   0  0  0  0  0  0  0  0  0  0  0  0
   36.9163    4.9449   15.5116 H   0  0  0  0  0  0  0  0  0  0  0  0
   39.8591    4.5767   16.0796 H   0  0  0  0  0  0  0  0  0  0  0  0
   39.0321    3.4435   14.9578 H   0  0  0  0  0  0  0  0  0  0  0  0
   40.2729    5.4975   13.9927 H   0  0  0  0  0  0  0  0  0  0  0  0
   38.6421    5.0803   13.3656 H   0  0  0  0  0  0  0  0  0  0  0  0
   37.6464    6.9456   14.3159 H   0  0  0  0  0  0  0  0  0  0  0  0
   39.2448    7.5620   13.7757 H   0  0  0  0  0  0  0  0  0  0  0  0
   40.0200   11.4292   16.3949 H   0  0  0  0  0  0  0  0  0  0  0  0
   40.5747   10.9625   14.7514 H   0  0  0  0  0  0  0  0  0  0  0  0
   44.0560   18.2011   16.1895 H   0  0  0  0  0  0  0  0  0  0  0  0
  1  2  2  0  0  0  0
  2  3  1  0  0  0  0
  2  4  1  0  0  0  0
  4  5  1  0  0  0  0
  5  6  1  0  0  0  0
  6 25  2  0  0  0  0
  6  7  1  0  0  0  0
  7  8  1  0  0  0  0
  7  9  2  0  0  0  0
  9 10  1  0  0  0  0
  9 24  1  0  0  0  0
 10 23  1  0  0  0  0
 10 11  2  0  0  0  0
 11 12  1  0  0  0  0
 12 13  2  0  0  0  0
 13 14  1  0  0  0  0
 14 15  2  0  0  0  0
 14 23  1  0  0  0  0
 15 16  1  0  0  0  0
 16 22  1  0  0  0  0
 16 17  1  0  0  0  0
 17 18  1  0  0  0  0
 18 19  1  0  0  0  0
 19 20  1  0  0  0  0
 20 21  1  0  0  0  0
 21 22  1  0  0  0  0
 24 25  1  0  0  0  0
 25 26  1  0  0  0  0
 26 27  2  0  0  0  0
 26 28  1  0  0  0  0
  3 29  1  0  0  0  0
  4 30  1  0  0  0  0
  4 31  1  0  0  0  0
 11 32  1  0  0  0  0
 12 33  1  0  0  0  0
 13 34  1  0  0  0  0
 16 35  1  0  0  0  0
 17 36  1  0  0  0  0
 17 37  1  0  0  0  0
 18 38  1  0  0  0  0
 18 39  1  0  0  0  0
 19 40  1  0  0  0  0
 19 41  1  0  0  0  0
 20 42  1  0  0  0  0
 20 43  1  0  0  0  0
 21 44  1  0  0  0  0
 21 45  1  0  0  0  0
 22 46  1  0  0  0  0
 22 47  1  0  0  0  0
 23 48  1  0  0  0  0
 23 49  1  0  0  0  0
 28 50  1  0  0  0  0
M  END
> <i_m_stars>
2

> <r_user_dG.exp>
-9.4138211030936

$$$$
