23480
  -OEChem-05192314073D
 Structure written by MMmdl.
 52 54  0     0  0  0  0  0  0999 V2000
   34.9009    4.9769   11.4174 C   0  0  0  0  0  0  0  0  0  0  0  0
   35.7432    5.3667   12.4886 O   0  0  0  0  0  0  0  0  0  0  0  0
   37.0750    5.4456   12.2999 C   0  0  0  0  0  0  0  0  0  0  0  0
   37.6240    5.2031   11.2233 O   0  0  0  0  0  0  0  0  0  0  0  0
   37.7153    5.8364   13.4582 N   0  0  0  0  0  0  0  0  0  0  0  0
   37.0173    6.1412   14.7978 C   0  0  0  0  0  0  0  0  0  0  0  0
   37.3829    7.5402   15.3340 C   0  0  0  0  0  0  0  0  0  0  0  0
   38.9114    7.7621   15.4291 C   0  0  0  0  0  0  0  0  0  0  0  0
   39.1835    9.1385   15.8446 N   0  0  0  0  0  0  0  0  0  0  0  0
   40.4829    9.5699   16.1594 C   0  0  0  0  0  0  0  0  0  0  0  0
   41.4815    8.7321   16.6725 C   0  0  0  0  0  0  0  0  0  0  0  0
   42.7506    9.2417   16.9424 C   0  0  0  0  0  0  0  0  0  0  0  0
   43.0417   10.5800   16.6715 C   0  0  0  0  0  0  0  0  0  0  0  0
   42.0577   11.4350   16.1601 C   0  0  0  0  0  0  0  0  0  0  0  0
   42.3473   12.8247   15.8292 C   0  0  0  0  0  0  0  0  0  0  0  0
   43.4366   13.7822   16.8006 S   0  0  0  0  0  0  0  0  0  0  0  0
   43.2082   15.1991   15.7938 C   0  0  0  0  0  0  0  0  0  0  0  0
   43.9488   16.4202   16.1914 C   0  0  0  0  0  0  0  0  0  0  0  0
   44.6955   16.3700   17.1931 O   0  0  0  0  0  0  0  0  0  0  0  0
   43.8161   17.4656   15.5160 O   0  0  0  0  0  0  0  0  0  0  0  0
   42.3248   14.9326   14.7526 C   0  0  0  0  0  0  0  0  0  0  0  0
   41.9117   15.8500   13.8469 O   0  0  0  0  0  0  0  0  0  0  0  0
   40.9786   16.8101   14.3368 C   0  0  0  0  0  0  0  0  0  0  0  0
   40.2316   17.4946   13.1897 C   0  0  0  0  0  0  0  0  0  0  0  0
   40.8772   17.7240   12.1431 O   0  0  0  0  0  0  0  0  0  0  0  0
   39.0259   17.7704   13.3758 O   0  0  0  0  0  0  0  0  0  0  0  0
   41.8775   13.6145   14.7795 C   0  0  0  0  0  0  0  0  0  0  0  0
   40.6623   12.9713   13.4584 Br  0  0  0  0  0  0  0  0  0  0  0  0
   40.7764   10.9164   15.9496 C   0  0  0  0  0  0  0  0  0  0  0  0
   39.6099    7.4194   14.0884 C   0  0  0  0  0  0  0  0  0  0  0  0
   39.2402    6.0199   13.5606 C   0  0  0  0  0  0  0  0  0  0  0  0
   33.8546    4.9695   11.7569 H   0  0  0  0  0  0  0  0  0  0  0  0
   35.0115    5.6890   10.5863 H   0  0  0  0  0  0  0  0  0  0  0  0
   35.1830    3.9696   11.0772 H   0  0  0  0  0  0  0  0  0  0  0  0
   35.9284    6.0906   14.6505 H   0  0  0  0  0  0  0  0  0  0  0  0
   37.3227    5.3864   15.5373 H   0  0  0  0  0  0  0  0  0  0  0  0
   36.9585    8.2979   14.6588 H   0  0  0  0  0  0  0  0  0  0  0  0
   36.9471    7.6576   16.3371 H   0  0  0  0  0  0  0  0  0  0  0  0
   39.3027    7.0765   16.1952 H   0  0  0  0  0  0  0  0  0  0  0  0
   38.8645    9.7255   15.1005 H   0  0  0  0  0  0  0  0  0  0  0  0
   41.2679    7.6900   16.8592 H   0  0  0  0  0  0  0  0  0  0  0  0
   43.5107    8.5995   17.3622 H   0  0  0  0  0  0  0  0  0  0  0  0
   44.0354   10.9595   16.8582 H   0  0  0  0  0  0  0  0  0  0  0  0
   44.3535   18.1545   15.8890 H   0  0  0  0  0  0  0  0  0  0  0  0
   40.2503   16.3029   14.9866 H   0  0  0  0  0  0  0  0  0  0  0  0
   41.5196   17.5719   14.9172 H   0  0  0  0  0  0  0  0  0  0  0  0
   38.6712   18.1834   12.5972 H   0  0  0  0  0  0  0  0  0  0  0  0
   39.9914   11.5782   15.6148 H   0  0  0  0  0  0  0  0  0  0  0  0
   39.3145    8.1671   13.3375 H   0  0  0  0  0  0  0  0  0  0  0  0
   40.6987    7.4614   14.2391 H   0  0  0  0  0  0  0  0  0  0  0  0
   39.6456    5.2614   14.2464 H   0  0  0  0  0  0  0  0  0  0  0  0
   39.6834    5.8863   12.5628 H   0  0  0  0  0  0  0  0  0  0  0  0
  1  2  1  0  0  0  0
  2  3  1  0  0  0  0
  3  4  2  0  0  0  0
  3  5  1  0  0  0  0
  5 31  1  0  0  0  0
  5  6  1  0  0  0  0
  6  7  1  0  0  0  0
  7  8  1  0  0  0  0
  8  9  1  0  0  0  0
  8 30  1  0  0  0  0
  9 10  1  0  0  0  0
 10 29  2  0  0  0  0
 10 11  1  0  0  0  0
 11 12  2  0  0  0  0
 12 13  1  0  0  0  0
 13 14  2  0  0  0  0
 14 15  1  0  0  0  0
 14 29  1  0  0  0  0
 15 27  2  0  0  0  0
 15 16  1  0  0  0  0
 16 17  1  0  0  0  0
 17 18  1  0  0  0  0
 17 21  2  0  0  0  0
 18 19  2  0  0  0  0
 18 20  1  0  0  0  0
 21 22  1  0  0  0  0
 21 27  1  0  0  0  0
 22 23  1  0  0  0  0
 23 24  1  0  0  0  0
 24 25  2  0  0  0  0
 24 26  1  0  0  0  0
 27 28  1  0  0  0  0
 30 31  1  0  0  0  0
  1 32  1  0  0  0  0
  1 33  1  0  0  0  0
  1 34  1  0  0  0  0
  6 35  1  0  0  0  0
  6 36  1  0  0  0  0
  7 37  1  0  0  0  0
  7 38  1  0  0  0  0
  8 39  1  0  0  0  0
  9 40  1  0  0  0  0
 11 41  1  0  0  0  0
 12 42  1  0  0  0  0
 13 43  1  0  0  0  0
 20 44  1  0  0  0  0
 23 45  1  0  0  0  0
 23 46  1  0  0  0  0
 26 47  1  0  0  0  0
 29 48  1  0  0  0  0
 30 49  1  0  0  0  0
 30 50  1  0  0  0  0
 31 51  1  0  0  0  0
 31 52  1  0  0  0  0
M  END
> <i_m_stars>
2

> <r_user_dG.exp>
-8.71754822596421

$$$$
23480
  -OEChem-05192314073D
 Structure written by MMmdl.
 52 54  0     0  0  0  0  0  0999 V2000
   34.9009    4.9769   11.4174 C   0  0  0  0  0  0  0  0  0  0  0  0
   35.7432    5.3667   12.4886 O   0  0  0  0  0  0  0  0  0  0  0  0
   37.0750    5.4456   12.2999 C   0  0  0  0  0  0  0  0  0  0  0  0
   37.6240    5.2031   11.2233 O   0  0  0  0  0  0  0  0  0  0  0  0
   37.7153    5.8364   13.4582 N   0  0  0  0  0  0  0  0  0  0  0  0
   37.0173    6.1412   14.7978 C   0  0  0  0  0  0  0  0  0  0  0  0
   37.3829    7.5402   15.3340 C   0  0  0  0  0  0  0  0  0  0  0  0
   38.9114    7.7621   15.4291 C   0  0  0  0  0  0  0  0  0  0  0  0
   39.1835    9.1385   15.8446 N   0  0  0  0  0  0  0  0  0  0  0  0
   40.4829    9.5699   16.1594 C   0  0  0  0  0  0  0  0  0  0  0  0
   41.4815    8.7321   16.6725 C   0  0  0  0  0  0  0  0  0  0  0  0
   42.7506    9.2417   16.9424 C   0  0  0  0  0  0  0  0  0  0  0  0
   43.0417   10.5800   16.6715 C   0  0  0  0  0  0  0  0  0  0  0  0
   42.0577   11.4350   16.1601 C   0  0  0  0  0  0  0  0  0  0  0  0
   42.3473   12.8247   15.8292 C   0  0  0  0  0  0  0  0  0  0  0  0
   43.4366   13.7822   16.8006 S   0  0  0  0  0  0  0  0  0  0  0  0
   43.2082   15.1991   15.7938 C   0  0  0  0  0  0  0  0  0  0  0  0
   43.9488   16.4202   16.1914 C   0  0  0  0  0  0  0  0  0  0  0  0
   44.6955   16.3700   17.1931 O   0  0  0  0  0  0  0  0  0  0  0  0
   43.8161   17.4656   15.5160 O   0  0  0  0  0  0  0  0  0  0  0  0
   42.3248   14.9326   14.7526 C   0  0  0  0  0  0  0  0  0  0  0  0
   41.9117   15.8500   13.8469 O   0  0  0  0  0  0  0  0  0  0  0  0
   40.9786   16.8101   14.3368 C   0  0  0  0  0  0  0  0  0  0  0  0
   40.2316   17.4946   13.1897 C   0  0  0  0  0  0  0  0  0  0  0  0
   40.8772   17.7240   12.1431 O   0  0  0  0  0  0  0  0  0  0  0  0
   39.0259   17.7704   13.3758 O   0  0  0  0  0  0  0  0  0  0  0  0
   41.8775   13.6145   14.7795 C   0  0  0  0  0  0  0  0  0  0  0  0
   40.6623   12.9713   13.4584 Br  0  0  0  0  0  0  0  0  0  0  0  0
   40.7764   10.9164   15.9496 C   0  0  0  0  0  0  0  0  0  0  0  0
   39.6099    7.4194   14.0884 C   0  0  0  0  0  0  0  0  0  0  0  0
   39.2402    6.0199   13.5606 C   0  0  0  0  0  0  0  0  0  0  0  0
   33.8546    4.9695   11.7569 H   0  0  0  0  0  0  0  0  0  0  0  0
   35.0115    5.6890   10.5863 H   0  0  0  0  0  0  0  0  0  0  0  0
   35.1830    3.9696   11.0772 H   0  0  0  0  0  0  0  0  0  0  0  0
   35.9284    6.0906   14.6505 H   0  0  0  0  0  0  0  0  0  0  0  0
   37.3227    5.3864   15.5373 H   0  0  0  0  0  0  0  0  0  0  0  0
   36.9585    8.2979   14.6588 H   0  0  0  0  0  0  0  0  0  0  0  0
   36.9471    7.6576   16.3371 H   0  0  0  0  0  0  0  0  0  0  0  0
   39.3027    7.0765   16.1952 H   0  0  0  0  0  0  0  0  0  0  0  0
   41.0967    8.3222   17.6180 H   0  0  0  0  0  0  0  0  0  0  0  0
   41.6150    7.9165   15.9466 H   0  0  0  0  0  0  0  0  0  0  0  0
   43.5107    8.5995   17.3622 H   0  0  0  0  0  0  0  0  0  0  0  0
   44.0354   10.9595   16.8582 H   0  0  0  0  0  0  0  0  0  0  0  0
   44.3535   18.1545   15.8890 H   0  0  0  0  0  0  0  0  0  0  0  0
   40.2503   16.3029   14.9866 H   0  0  0  0  0  0  0  0  0  0  0  0
   41.5196   17.5719   14.9172 H   0  0  0  0  0  0  0  0  0  0  0  0
   38.6712   18.1834   12.5972 H   0  0  0  0  0  0  0  0  0  0  0  0
   39.9914   11.5782   15.6148 H   0  0  0  0  0  0  0  0  0  0  0  0
   39.3145    8.1671   13.3375 H   0  0  0  0  0  0  0  0  0  0  0  0
   40.6987    7.4614   14.2391 H   0  0  0  0  0  0  0  0  0  0  0  0
   39.6456    5.2614   14.2464 H   0  0  0  0  0  0  0  0  0  0  0  0
   39.6834    5.8863   12.5628 H   0  0  0  0  0  0  0  0  0  0  0  0
  1  2  1  0  0  0  0
  2  3  1  0  0  0  0
  3  4  2  0  0  0  0
  3  5  1  0  0  0  0
  5 31  1  0  0  0  0
  5  6  1  0  0  0  0
  6  7  1  0  0  0  0
  7  8  1  0  0  0  0
  8  9  1  0  0  0  0
  8 30  1  0  0  0  0
  9 10  2  0  0  0  0
 10 29  1  0  0  0  0
 10 11  1  0  0  0  0
 11 12  1  0  0  0  0
 12 13  2  0  0  0  0
 13 14  1  0  0  0  0
 14 15  1  0  0  0  0
 14 29  2  0  0  0  0
 15 27  2  0  0  0  0
 15 16  1  0  0  0  0
 16 17  1  0  0  0  0
 17 18  1  0  0  0  0
 17 21  2  0  0  0  0
 18 19  2  0  0  0  0
 18 20  1  0  0  0  0
 21 22  1  0  0  0  0
 21 27  1  0  0  0  0
 22 23  1  0  0  0  0
 23 24  1  0  0  0  0
 24 25  2  0  0  0  0
 24 26  1  0  0  0  0
 27 28  1  0  0  0  0
 30 31  1  0  0  0  0
  1 32  1  0  0  0  0
  1 33  1  0  0  0  0
  1 34  1  0  0  0  0
  6 35  1  0  0  0  0
  6 36  1  0  0  0  0
  7 37  1  0  0  0  0
  7 38  1  0  0  0  0
  8 39  1  0  0  0  0
 11 40  1  0  0  0  0
 11 41  1  0  0  0  0
 12 42  1  0  0  0  0
 13 43  1  0  0  0  0
 20 44  1  0  0  0  0
 23 45  1  0  0  0  0
 23 46  1  0  0  0  0
 26 47  1  0  0  0  0
 29 48  1  0  0  0  0
 30 49  1  0  0  0  0
 30 50  1  0  0  0  0
 31 51  1  0  0  0  0
 31 52  1  0  0  0  0
M  END
> <i_m_stars>
2

> <r_user_dG.exp>
-8.71754822596421

$$$$
23480
  -OEChem-05192314073D
 Structure written by MMmdl.
 52 54  0     0  0  0  0  0  0999 V2000
   34.9009    4.9769   11.4174 C   0  0  0  0  0  0  0  0  0  0  0  0
   35.7432    5.3667   12.4886 O   0  0  0  0  0  0  0  0  0  0  0  0
   37.0750    5.4456   12.2999 C   0  0  0  0  0  0  0  0  0  0  0  0
   37.6240    5.2031   11.2233 O   0  0  0  0  0  0  0  0  0  0  0  0
   37.7153    5.8364   13.4582 N   0  0  0  0  0  0  0  0  0  0  0  0
   37.0173    6.1412   14.7978 C   0  0  0  0  0  0  0  0  0  0  0  0
   37.3829    7.5402   15.3340 C   0  0  0  0  0  0  0  0  0  0  0  0
   38.9114    7.7621   15.4291 C   0  0  0  0  0  0  0  0  0  0  0  0
   39.1835    9.1385   15.8446 N   0  0  0  0  0  0  0  0  0  0  0  0
   40.4829    9.5699   16.1594 C   0  0  0  0  0  0  0  0  0  0  0  0
   41.4815    8.7321   16.6725 C   0  0  0  0  0  0  0  0  0  0  0  0
   42.7506    9.2417   16.9424 C   0  0  0  0  0  0  0  0  0  0  0  0
   43.0417   10.5800   16.6715 C   0  0  0  0  0  0  0  0  0  0  0  0
   42.0577   11.4350   16.1601 C   0  0  0  0  0  0  0  0  0  0  0  0
   42.3473   12.8247   15.8292 C   0  0  0  0  0  0  0  0  0  0  0  0
   43.4366   13.7822   16.8006 S   0  0  0  0  0  0  0  0  0  0  0  0
   43.2082   15.1991   15.7938 C   0  0  0  0  0  0  0  0  0  0  0  0
   43.9488   16.4202   16.1914 C   0  0  0  0  0  0  0  0  0  0  0  0
   44.6955   16.3700   17.1931 O   0  0  0  0  0  0  0  0  0  0  0  0
   43.8161   17.4656   15.5160 O   0  0  0  0  0  0  0  0  0  0  0  0
   42.3248   14.9326   14.7526 C   0  0  0  0  0  0  0  0  0  0  0  0
   41.9117   15.8500   13.8469 O   0  0  0  0  0  0  0  0  0  0  0  0
   40.9786   16.8101   14.3368 C   0  0  0  0  0  0  0  0  0  0  0  0
   40.2316   17.4946   13.1897 C   0  0  0  0  0  0  0  0  0  0  0  0
   40.8772   17.7240   12.1431 O   0  0  0  0  0  0  0  0  0  0  0  0
   39.0259   17.7704   13.3758 O   0  0  0  0  0  0  0  0  0  0  0  0
   41.8775   13.6145   14.7795 C   0  0  0  0  0  0  0  0  0  0  0  0
   40.6623   12.9713   13.4584 Br  0  0  0  0  0  0  0  0  0  0  0  0
   40.7764   10.9164   15.9496 C   0  0  0  0  0  0  0  0  0  0  0  0
   39.6099    7.4194   14.0884 C   0  0  0  0  0  0  0  0  0  0  0  0
   39.2402    6.0199   13.5606 C   0  0  0  0  0  0  0  0  0  0  0  0
   33.8546    4.9695   11.7569 H   0  0  0  0  0  0  0  0  0  0  0  0
   35.0115    5.6890   10.5863 H   0  0  0  0  0  0  0  0  0  0  0  0
   35.1830    3.9696   11.0772 H   0  0  0  0  0  0  0  0  0  0  0  0
   35.9284    6.0906   14.6505 H   0  0  0  0  0  0  0  0  0  0  0  0
   37.3227    5.3864   15.5373 H   0  0  0  0  0  0  0  0  0  0  0  0
   36.9585    8.2979   14.6588 H   0  0  0  0  0  0  0  0  0  0  0  0
   36.9471    7.6576   16.3371 H   0  0  0  0  0  0  0  0  0  0  0  0
   39.3027    7.0765   16.1952 H   0  0  0  0  0  0  0  0  0  0  0  0
   41.2679    7.6900   16.8592 H   0  0  0  0  0  0  0  0  0  0  0  0
   43.5107    8.5995   17.3622 H   0  0  0  0  0  0  0  0  0  0  0  0
   43.3843   11.0250   17.6173 H   0  0  0  0  0  0  0  0  0  0  0  0
   43.8678   10.5813   15.9452 H   0  0  0  0  0  0  0  0  0  0  0  0
   44.3535   18.1545   15.8890 H   0  0  0  0  0  0  0  0  0  0  0  0
   40.2503   16.3029   14.9866 H   0  0  0  0  0  0  0  0  0  0  0  0
   41.5196   17.5719   14.9172 H   0  0  0  0  0  0  0  0  0  0  0  0
   38.6712   18.1834   12.5972 H   0  0  0  0  0  0  0  0  0  0  0  0
   39.9914   11.5782   15.6148 H   0  0  0  0  0  0  0  0  0  0  0  0
   39.3145    8.1671   13.3375 H   0  0  0  0  0  0  0  0  0  0  0  0
   40.6987    7.4614   14.2391 H   0  0  0  0  0  0  0  0  0  0  0  0
   39.6456    5.2614   14.2464 H   0  0  0  0  0  0  0  0  0  0  0  0
   39.6834    5.8863   12.5628 H   0  0  0  0  0  0  0  0  0  0  0  0
  1  2  1  0  0  0  0
  2  3  1  0  0  0  0
  3  4  2  0  0  0  0
  3  5  1  0  0  0  0
  5 31  1  0  0  0  0
  5  6  1  0  0  0  0
  6  7  1  0  0  0  0
  7  8  1  0  0  0  0
  8  9  1  0  0  0  0
  8 30  1  0  0  0  0
  9 10  2  0  0  0  0
 10 29  1  0  0  0  0
 10 11  1  0  0  0  0
 11 12  2  0  0  0  0
 12 13  1  0  0  0  0
 13 14  1  0  0  0  0
 14 15  1  0  0  0  0
 14 29  2  0  0  0  0
 15 27  2  0  0  0  0
 15 16  1  0  0  0  0
 16 17  1  0  0  0  0
 17 18  1  0  0  0  0
 17 21  2  0  0  0  0
 18 19  2  0  0  0  0
 18 20  1  0  0  0  0
 21 22  1  0  0  0  0
 21 27  1  0  0  0  0
 22 23  1  0  0  0  0
 23 24  1  0  0  0  0
 24 25  2  0  0  0  0
 24 26  1  0  0  0  0
 27 28  1  0  0  0  0
 30 31  1  0  0  0  0
  1 32  1  0  0  0  0
  1 33  1  0  0  0  0
  1 34  1  0  0  0  0
  6 35  1  0  0  0  0
  6 36  1  0  0  0  0
  7 37  1  0  0  0  0
  7 38  1  0  0  0  0
  8 39  1  0  0  0  0
 11 40  1  0  0  0  0
 12 41  1  0  0  0  0
 13 42  1  0  0  0  0
 13 43  1  0  0  0  0
 20 44  1  0  0  0  0
 23 45  1  0  0  0  0
 23 46  1  0  0  0  0
 26 47  1  0  0  0  0
 29 48  1  0  0  0  0
 30 49  1  0  0  0  0
 30 50  1  0  0  0  0
 31 51  1  0  0  0  0
 31 52  1  0  0  0  0
M  END
> <i_m_stars>
2

> <r_user_dG.exp>
-8.71754822596421

$$$$
23480
  -OEChem-05192314073D
 Structure written by MMmdl.
 52 54  0     0  0  0  0  0  0999 V2000
   34.9009    4.9769   11.4174 C   0  0  0  0  0  0  0  0  0  0  0  0
   35.7432    5.3667   12.4886 O   0  0  0  0  0  0  0  0  0  0  0  0
   37.0750    5.4456   12.2999 C   0  0  0  0  0  0  0  0  0  0  0  0
   37.6240    5.2031   11.2233 O   0  0  0  0  0  0  0  0  0  0  0  0
   37.7153    5.8364   13.4582 N   0  0  0  0  0  0  0  0  0  0  0  0
   37.0173    6.1412   14.7978 C   0  0  0  0  0  0  0  0  0  0  0  0
   37.3829    7.5402   15.3340 C   0  0  0  0  0  0  0  0  0  0  0  0
   38.9114    7.7621   15.4291 C   0  0  0  0  0  0  0  0  0  0  0  0
   39.1835    9.1385   15.8446 N   0  0  0  0  0  0  0  0  0  0  0  0
   40.4829    9.5699   16.1594 C   0  0  0  0  0  0  0  0  0  0  0  0
   41.4815    8.7321   16.6725 C   0  0  0  0  0  0  0  0  0  0  0  0
   42.7506    9.2417   16.9424 C   0  0  0  0  0  0  0  0  0  0  0  0
   43.0417   10.5800   16.6715 C   0  0  0  0  0  0  0  0  0  0  0  0
   42.0577   11.4350   16.1601 C   0  0  0  0  0  0  0  0  0  0  0  0
   42.3473   12.8247   15.8292 C   0  0  0  0  0  0  0  0  0  0  0  0
   43.4366   13.7822   16.8006 S   0  0  0  0  0  0  0  0  0  0  0  0
   43.2082   15.1991   15.7938 C   0  0  0  0  0  0  0  0  0  0  0  0
   43.9488   16.4202   16.1914 C   0  0  0  0  0  0  0  0  0  0  0  0
   44.6955   16.3700   17.1931 O   0  0  0  0  0  0  0  0  0  0  0  0
   43.8161   17.4656   15.5160 O   0  0  0  0  0  0  0  0  0  0  0  0
   42.3248   14.9326   14.7526 C   0  0  0  0  0  0  0  0  0  0  0  0
   41.9117   15.8500   13.8469 O   0  0  0  0  0  0  0  0  0  0  0  0
   40.9786   16.8101   14.3368 C   0  0  0  0  0  0  0  0  0  0  0  0
   40.2316   17.4946   13.1897 C   0  0  0  0  0  0  0  0  0  0  0  0
   40.8772   17.7240   12.1431 O   0  0  0  0  0  0  0  0  0  0  0  0
   39.0259   17.7704   13.3758 O   0  0  0  0  0  0  0  0  0  0  0  0
   41.8775   13.6145   14.7795 C   0  0  0  0  0  0  0  0  0  0  0  0
   40.6623   12.9713   13.4584 Br  0  0  0  0  0  0  0  0  0  0  0  0
   40.7764   10.9164   15.9496 C   0  0  0  0  0  0  0  0  0  0  0  0
   39.6099    7.4194   14.0884 C   0  0  0  0  0  0  0  0  0  0  0  0
   39.2402    6.0199   13.5606 C   0  0  0  0  0  0  0  0  0  0  0  0
   33.8546    4.9695   11.7569 H   0  0  0  0  0  0  0  0  0  0  0  0
   35.0115    5.6890   10.5863 H   0  0  0  0  0  0  0  0  0  0  0  0
   35.1830    3.9696   11.0772 H   0  0  0  0  0  0  0  0  0  0  0  0
   35.9284    6.0906   14.6505 H   0  0  0  0  0  0  0  0  0  0  0  0
   37.3227    5.3864   15.5373 H   0  0  0  0  0  0  0  0  0  0  0  0
   36.9585    8.2979   14.6588 H   0  0  0  0  0  0  0  0  0  0  0  0
   36.9471    7.6576   16.3371 H   0  0  0  0  0  0  0  0  0  0  0  0
   39.3027    7.0765   16.1952 H   0  0  0  0  0  0  0  0  0  0  0  0
   41.2679    7.6900   16.8592 H   0  0  0  0  0  0  0  0  0  0  0  0
   43.5107    8.5995   17.3622 H   0  0  0  0  0  0  0  0  0  0  0  0
   44.0354   10.9595   16.8582 H   0  0  0  0  0  0  0  0  0  0  0  0
   44.3535   18.1545   15.8890 H   0  0  0  0  0  0  0  0  0  0  0  0
   40.2503   16.3029   14.9866 H   0  0  0  0  0  0  0  0  0  0  0  0
   41.5196   17.5719   14.9172 H   0  0  0  0  0  0  0  0  0  0  0  0
   38.6712   18.1834   12.5972 H   0  0  0  0  0  0  0  0  0  0  0  0
   40.5277   11.1261   14.8988 H   0  0  0  0  0  0  0  0  0  0  0  0
   40.1018   11.4850   16.6066 H   0  0  0  0  0  0  0  0  0  0  0  0
   39.3145    8.1671   13.3375 H   0  0  0  0  0  0  0  0  0  0  0  0
   40.6987    7.4614   14.2391 H   0  0  0  0  0  0  0  0  0  0  0  0
   39.6456    5.2614   14.2464 H   0  0  0  0  0  0  0  0  0  0  0  0
   39.6834    5.8863   12.5628 H   0  0  0  0  0  0  0  0  0  0  0  0
  1  2  1  0  0  0  0
  2  3  1  0  0  0  0
  3  4  2  0  0  0  0
  3  5  1  0  0  0  0
  5 31  1  0  0  0  0
  5  6  1  0  0  0  0
  6  7  1  0  0  0  0
  7  8  1  0  0  0  0
  8  9  1  0  0  0  0
  8 30  1  0  0  0  0
  9 10  2  0  0  0  0
 10 29  1  0  0  0  0
 10 11  1  0  0  0  0
 11 12  2  0  0  0  0
 12 13  1  0  0  0  0
 13 14  2  0  0  0  0
 14 15  1  0  0  0  0
 14 29  1  0  0  0  0
 15 27  2  0  0  0  0
 15 16  1  0  0  0  0
 16 17  1  0  0  0  0
 17 18  1  0  0  0  0
 17 21  2  0  0  0  0
 18 19  2  0  0  0  0
 18 20  1  0  0  0  0
 21 22  1  0  0  0  0
 21 27  1  0  0  0  0
 22 23  1  0  0  0  0
 23 24  1  0  0  0  0
 24 25  2  0  0  0  0
 24 26  1  0  0  0  0
 27 28  1  0  0  0  0
 30 31  1  0  0  0  0
  1 32  1  0  0  0  0
  1 33  1  0  0  0  0
  1 34  1  0  0  0  0
  6 35  1  0  0  0  0
  6 36  1  0  0  0  0
  7 37  1  0  0  0  0
  7 38  1  0  0  0  0
  8 39  1  0  0  0  0
 11 40  1  0  0  0  0
 12 41  1  0  0  0  0
 13 42  1  0  0  0  0
 20 43  1  0  0  0  0
 23 44  1  0  0  0  0
 23 45  1  0  0  0  0
 26 46  1  0  0  0  0
 29 47  1  0  0  0  0
 29 48  1  0  0  0  0
 30 49  1  0  0  0  0
 30 50  1  0  0  0  0
 31 51  1  0  0  0  0
 31 52  1  0  0  0  0
M  END
> <i_m_stars>
2

> <r_user_dG.exp>
-8.71754822596421

$$$$
