23475
  -OEChem-05192314073D
 Structure written by MMmdl.
 44 46  0     0  0  0  0  0  0999 V2000
   41.4191   17.6003   11.9575 O   0  0  0  0  0  0  0  0  0  0  0  0
   40.5356   17.4939   12.8367 C   0  0  0  0  0  0  0  0  0  0  0  0
   39.4594   18.1303   12.8671 O   0  0  0  0  0  0  0  0  0  0  0  0
   40.7983   16.5073   13.9770 C   0  0  0  0  0  0  0  0  0  0  0  0
   42.0652   15.8703   13.8290 O   0  0  0  0  0  0  0  0  0  0  0  0
   42.3682   14.9604   14.7843 C   0  0  0  0  0  0  0  0  0  0  0  0
   41.8945   13.6150   14.7768 C   0  0  0  0  0  0  0  0  0  0  0  0
   40.7639   12.9503   13.3926 Br  0  0  0  0  0  0  0  0  0  0  0  0
   42.3354   12.8406   15.8190 C   0  0  0  0  0  0  0  0  0  0  0  0
   42.0585   11.4474   16.1564 C   0  0  0  0  0  0  0  0  0  0  0  0
   43.0853   10.6026   16.6322 C   0  0  0  0  0  0  0  0  0  0  0  0
   42.8174    9.2595   16.9591 C   0  0  0  0  0  0  0  0  0  0  0  0
   41.5160    8.7447   16.8124 C   0  0  0  0  0  0  0  0  0  0  0  0
   40.4830    9.5756   16.3374 C   0  0  0  0  0  0  0  0  0  0  0  0
   39.1988    9.0234   16.2104 N   0  0  0  0  0  0  0  0  0  0  0  0
   38.9954    7.6289   15.8731 C   0  0  0  0  0  0  0  0  0  0  0  0
   39.1357    7.3709   14.3719 C   0  0  0  0  0  0  0  0  0  0  0  0
   38.2665    6.1411   14.1220 C   0  0  0  0  0  0  0  0  0  0  0  0
   37.0665    6.3370   15.0501 C   0  0  0  0  0  0  0  0  0  0  0  0
   37.5932    7.1312   16.2550 C   0  0  0  0  0  0  0  0  0  0  0  0
   40.7558   10.9195   16.0117 C   0  0  0  0  0  0  0  0  0  0  0  0
   43.3865   13.7731   16.8529 S   0  0  0  0  0  0  0  0  0  0  0  0
   43.2022   15.2033   15.8529 C   0  0  0  0  0  0  0  0  0  0  0  0
   43.9483   16.4111   16.2795 C   0  0  0  0  0  0  0  0  0  0  0  0
   44.6544   16.3479   17.3096 O   0  0  0  0  0  0  0  0  0  0  0  0
   43.8504   17.4622   15.6071 O   0  0  0  0  0  0  0  0  0  0  0  0
   39.4131   18.7110   12.1167 H   0  0  0  0  0  0  0  0  0  0  0  0
   40.7802   17.0513   14.9329 H   0  0  0  0  0  0  0  0  0  0  0  0
   40.0095   15.7407   13.9764 H   0  0  0  0  0  0  0  0  0  0  0  0
   44.0866   10.9908   16.7465 H   0  0  0  0  0  0  0  0  0  0  0  0
   43.6113    8.6239   17.3227 H   0  0  0  0  0  0  0  0  0  0  0  0
   41.3099    7.7147   17.0635 H   0  0  0  0  0  0  0  0  0  0  0  0
   38.7428    9.1690   17.0884 H   0  0  0  0  0  0  0  0  0  0  0  0
   39.7369    7.0121   16.4020 H   0  0  0  0  0  0  0  0  0  0  0  0
   38.7705    8.2314   13.7921 H   0  0  0  0  0  0  0  0  0  0  0  0
   40.1839    7.1685   14.1069 H   0  0  0  0  0  0  0  0  0  0  0  0
   37.9443    6.0977   13.0711 H   0  0  0  0  0  0  0  0  0  0  0  0
   38.8109    5.2199   14.3769 H   0  0  0  0  0  0  0  0  0  0  0  0
   36.2736    6.9009   14.5369 H   0  0  0  0  0  0  0  0  0  0  0  0
   36.6718    5.3634   15.3762 H   0  0  0  0  0  0  0  0  0  0  0  0
   37.6490    6.4829   17.1419 H   0  0  0  0  0  0  0  0  0  0  0  0
   36.9318    7.9846   16.4656 H   0  0  0  0  0  0  0  0  0  0  0  0
   39.9604   11.5528   15.6475 H   0  0  0  0  0  0  0  0  0  0  0  0
   44.3778   18.1442   16.0061 H   0  0  0  0  0  0  0  0  0  0  0  0
  1  2  2  0  0  0  0
  2  3  1  0  0  0  0
  2  4  1  0  0  0  0
  4  5  1  0  0  0  0
  5  6  1  0  0  0  0
  6 23  2  0  0  0  0
  6  7  1  0  0  0  0
  7  8  1  0  0  0  0
  7  9  2  0  0  0  0
  9 10  1  0  0  0  0
  9 22  1  0  0  0  0
 10 21  2  0  0  0  0
 10 11  1  0  0  0  0
 11 12  2  0  0  0  0
 12 13  1  0  0  0  0
 13 14  2  0  0  0  0
 14 15  1  0  0  0  0
 14 21  1  0  0  0  0
 15 16  1  0  0  0  0
 16 20  1  0  0  0  0
 16 17  1  0  0  0  0
 17 18  1  0  0  0  0
 18 19  1  0  0  0  0
 19 20  1  0  0  0  0
 22 23  1  0  0  0  0
 23 24  1  0  0  0  0
 24 25  2  0  0  0  0
 24 26  1  0  0  0  0
  3 27  1  0  0  0  0
  4 28  1  0  0  0  0
  4 29  1  0  0  0  0
 11 30  1  0  0  0  0
 12 31  1  0  0  0  0
 13 32  1  0  0  0  0
 15 33  1  0  0  0  0
 16 34  1  0  0  0  0
 17 35  1  0  0  0  0
 17 36  1  0  0  0  0
 18 37  1  0  0  0  0
 18 38  1  0  0  0  0
 19 39  1  0  0  0  0
 19 40  1  0  0  0  0
 20 41  1  0  0  0  0
 20 42  1  0  0  0  0
 21 43  1  0  0  0  0
 26 44  1  0  0  0  0
M  END
> <i_m_stars>
2

> <r_user_dG.exp>
-8.71754822596421

$$$$
23475
  -OEChem-05192314073D
 Structure written by MMmdl.
 44 46  0     0  0  0  0  0  0999 V2000
   41.4191   17.6003   11.9575 O   0  0  0  0  0  0  0  0  0  0  0  0
   40.5356   17.4939   12.8367 C   0  0  0  0  0  0  0  0  0  0  0  0
   39.4594   18.1303   12.8671 O   0  0  0  0  0  0  0  0  0  0  0  0
   40.7983   16.5073   13.9770 C   0  0  0  0  0  0  0  0  0  0  0  0
   42.0652   15.8703   13.8290 O   0  0  0  0  0  0  0  0  0  0  0  0
   42.3682   14.9604   14.7843 C   0  0  0  0  0  0  0  0  0  0  0  0
   41.8945   13.6150   14.7768 C   0  0  0  0  0  0  0  0  0  0  0  0
   40.7639   12.9503   13.3926 Br  0  0  0  0  0  0  0  0  0  0  0  0
   42.3354   12.8406   15.8190 C   0  0  0  0  0  0  0  0  0  0  0  0
   42.0585   11.4474   16.1564 C   0  0  0  0  0  0  0  0  0  0  0  0
   43.0853   10.6026   16.6322 C   0  0  0  0  0  0  0  0  0  0  0  0
   42.8174    9.2595   16.9591 C   0  0  0  0  0  0  0  0  0  0  0  0
   41.5160    8.7447   16.8124 C   0  0  0  0  0  0  0  0  0  0  0  0
   40.4830    9.5756   16.3374 C   0  0  0  0  0  0  0  0  0  0  0  0
   39.1988    9.0234   16.2104 N   0  0  0  0  0  0  0  0  0  0  0  0
   38.9954    7.6289   15.8731 C   0  0  0  0  0  0  0  0  0  0  0  0
   39.1357    7.3709   14.3719 C   0  0  0  0  0  0  0  0  0  0  0  0
   38.2665    6.1411   14.1220 C   0  0  0  0  0  0  0  0  0  0  0  0
   37.0665    6.3370   15.0501 C   0  0  0  0  0  0  0  0  0  0  0  0
   37.5932    7.1312   16.2550 C   0  0  0  0  0  0  0  0  0  0  0  0
   40.7558   10.9195   16.0117 C   0  0  0  0  0  0  0  0  0  0  0  0
   43.3865   13.7731   16.8529 S   0  0  0  0  0  0  0  0  0  0  0  0
   43.2022   15.2033   15.8529 C   0  0  0  0  0  0  0  0  0  0  0  0
   43.9483   16.4111   16.2795 C   0  0  0  0  0  0  0  0  0  0  0  0
   44.6544   16.3479   17.3096 O   0  0  0  0  0  0  0  0  0  0  0  0
   43.8504   17.4622   15.6071 O   0  0  0  0  0  0  0  0  0  0  0  0
   39.4131   18.7110   12.1167 H   0  0  0  0  0  0  0  0  0  0  0  0
   40.7802   17.0513   14.9329 H   0  0  0  0  0  0  0  0  0  0  0  0
   40.0095   15.7407   13.9764 H   0  0  0  0  0  0  0  0  0  0  0  0
   44.0866   10.9908   16.7465 H   0  0  0  0  0  0  0  0  0  0  0  0
   43.6113    8.6239   17.3227 H   0  0  0  0  0  0  0  0  0  0  0  0
   41.5863    7.8952   16.1171 H   0  0  0  0  0  0  0  0  0  0  0  0
   41.2033    8.3829   17.8030 H   0  0  0  0  0  0  0  0  0  0  0  0
   39.7369    7.0121   16.4020 H   0  0  0  0  0  0  0  0  0  0  0  0
   38.7705    8.2314   13.7921 H   0  0  0  0  0  0  0  0  0  0  0  0
   40.1839    7.1685   14.1069 H   0  0  0  0  0  0  0  0  0  0  0  0
   37.9443    6.0977   13.0711 H   0  0  0  0  0  0  0  0  0  0  0  0
   38.8109    5.2199   14.3769 H   0  0  0  0  0  0  0  0  0  0  0  0
   36.2736    6.9009   14.5369 H   0  0  0  0  0  0  0  0  0  0  0  0
   36.6718    5.3634   15.3762 H   0  0  0  0  0  0  0  0  0  0  0  0
   37.6490    6.4829   17.1419 H   0  0  0  0  0  0  0  0  0  0  0  0
   36.9318    7.9846   16.4656 H   0  0  0  0  0  0  0  0  0  0  0  0
   39.9604   11.5528   15.6475 H   0  0  0  0  0  0  0  0  0  0  0  0
   44.3778   18.1442   16.0061 H   0  0  0  0  0  0  0  0  0  0  0  0
  1  2  2  0  0  0  0
  2  3  1  0  0  0  0
  2  4  1  0  0  0  0
  4  5  1  0  0  0  0
  5  6  1  0  0  0  0
  6 23  2  0  0  0  0
  6  7  1  0  0  0  0
  7  8  1  0  0  0  0
  7  9  2  0  0  0  0
  9 10  1  0  0  0  0
  9 22  1  0  0  0  0
 10 21  2  0  0  0  0
 10 11  1  0  0  0  0
 11 12  2  0  0  0  0
 12 13  1  0  0  0  0
 13 14  1  0  0  0  0
 14 15  2  3  0  0  0
 14 21  1  0  0  0  0
 15 16  1  0  0  0  0
 16 20  1  0  0  0  0
 16 17  1  0  0  0  0
 17 18  1  0  0  0  0
 18 19  1  0  0  0  0
 19 20  1  0  0  0  0
 22 23  1  0  0  0  0
 23 24  1  0  0  0  0
 24 25  2  0  0  0  0
 24 26  1  0  0  0  0
  3 27  1  0  0  0  0
  4 28  1  0  0  0  0
  4 29  1  0  0  0  0
 11 30  1  0  0  0  0
 12 31  1  0  0  0  0
 13 32  1  0  0  0  0
 13 33  1  0  0  0  0
 16 34  1  0  0  0  0
 17 35  1  0  0  0  0
 17 36  1  0  0  0  0
 18 37  1  0  0  0  0
 18 38  1  0  0  0  0
 19 39  1  0  0  0  0
 19 40  1  0  0  0  0
 20 41  1  0  0  0  0
 20 42  1  0  0  0  0
 21 43  1  0  0  0  0
 26 44  1  0  0  0  0
M  END
> <i_m_stars>
2

> <r_user_dG.exp>
-8.71754822596421

$$$$
23475
  -OEChem-05192314073D
 Structure written by MMmdl.
 44 46  0     0  0  0  0  0  0999 V2000
   41.4191   17.6003   11.9575 O   0  0  0  0  0  0  0  0  0  0  0  0
   40.5356   17.4939   12.8367 C   0  0  0  0  0  0  0  0  0  0  0  0
   39.4594   18.1303   12.8671 O   0  0  0  0  0  0  0  0  0  0  0  0
   40.7983   16.5073   13.9770 C   0  0  0  0  0  0  0  0  0  0  0  0
   42.0652   15.8703   13.8290 O   0  0  0  0  0  0  0  0  0  0  0  0
   42.3682   14.9604   14.7843 C   0  0  0  0  0  0  0  0  0  0  0  0
   41.8945   13.6150   14.7768 C   0  0  0  0  0  0  0  0  0  0  0  0
   40.7639   12.9503   13.3926 Br  0  0  0  0  0  0  0  0  0  0  0  0
   42.3354   12.8406   15.8190 C   0  0  0  0  0  0  0  0  0  0  0  0
   42.0585   11.4474   16.1564 C   0  0  0  0  0  0  0  0  0  0  0  0
   43.0853   10.6026   16.6322 C   0  0  0  0  0  0  0  0  0  0  0  0
   42.8174    9.2595   16.9591 C   0  0  0  0  0  0  0  0  0  0  0  0
   41.5160    8.7447   16.8124 C   0  0  0  0  0  0  0  0  0  0  0  0
   40.4830    9.5756   16.3374 C   0  0  0  0  0  0  0  0  0  0  0  0
   39.1988    9.0234   16.2104 N   0  0  0  0  0  0  0  0  0  0  0  0
   38.9954    7.6289   15.8731 C   0  0  0  0  0  0  0  0  0  0  0  0
   39.1357    7.3709   14.3719 C   0  0  0  0  0  0  0  0  0  0  0  0
   38.2665    6.1411   14.1220 C   0  0  0  0  0  0  0  0  0  0  0  0
   37.0665    6.3370   15.0501 C   0  0  0  0  0  0  0  0  0  0  0  0
   37.5932    7.1312   16.2550 C   0  0  0  0  0  0  0  0  0  0  0  0
   40.7558   10.9195   16.0117 C   0  0  0  0  0  0  0  0  0  0  0  0
   43.3865   13.7731   16.8529 S   0  0  0  0  0  0  0  0  0  0  0  0
   43.2022   15.2033   15.8529 C   0  0  0  0  0  0  0  0  0  0  0  0
   43.9483   16.4111   16.2795 C   0  0  0  0  0  0  0  0  0  0  0  0
   44.6544   16.3479   17.3096 O   0  0  0  0  0  0  0  0  0  0  0  0
   43.8504   17.4622   15.6071 O   0  0  0  0  0  0  0  0  0  0  0  0
   39.4131   18.7110   12.1167 H   0  0  0  0  0  0  0  0  0  0  0  0
   40.7802   17.0513   14.9329 H   0  0  0  0  0  0  0  0  0  0  0  0
   40.0095   15.7407   13.9764 H   0  0  0  0  0  0  0  0  0  0  0  0
   43.8647   10.5876   15.8561 H   0  0  0  0  0  0  0  0  0  0  0  0
   43.4835   11.0742   17.5427 H   0  0  0  0  0  0  0  0  0  0  0  0
   43.6113    8.6239   17.3227 H   0  0  0  0  0  0  0  0  0  0  0  0
   41.3099    7.7147   17.0635 H   0  0  0  0  0  0  0  0  0  0  0  0
   39.7369    7.0121   16.4020 H   0  0  0  0  0  0  0  0  0  0  0  0
   38.7705    8.2314   13.7921 H   0  0  0  0  0  0  0  0  0  0  0  0
   40.1839    7.1685   14.1069 H   0  0  0  0  0  0  0  0  0  0  0  0
   37.9443    6.0977   13.0711 H   0  0  0  0  0  0  0  0  0  0  0  0
   38.8109    5.2199   14.3769 H   0  0  0  0  0  0  0  0  0  0  0  0
   36.2736    6.9009   14.5369 H   0  0  0  0  0  0  0  0  0  0  0  0
   36.6718    5.3634   15.3762 H   0  0  0  0  0  0  0  0  0  0  0  0
   37.6490    6.4829   17.1419 H   0  0  0  0  0  0  0  0  0  0  0  0
   36.9318    7.9846   16.4656 H   0  0  0  0  0  0  0  0  0  0  0  0
   39.9604   11.5528   15.6475 H   0  0  0  0  0  0  0  0  0  0  0  0
   44.3778   18.1442   16.0061 H   0  0  0  0  0  0  0  0  0  0  0  0
  1  2  2  0  0  0  0
  2  3  1  0  0  0  0
  2  4  1  0  0  0  0
  4  5  1  0  0  0  0
  5  6  1  0  0  0  0
  6 23  2  0  0  0  0
  6  7  1  0  0  0  0
  7  8  1  0  0  0  0
  7  9  2  0  0  0  0
  9 10  1  0  0  0  0
  9 22  1  0  0  0  0
 10 21  2  0  0  0  0
 10 11  1  0  0  0  0
 11 12  1  0  0  0  0
 12 13  2  0  0  0  0
 13 14  1  0  0  0  0
 14 15  2  3  0  0  0
 14 21  1  0  0  0  0
 15 16  1  0  0  0  0
 16 20  1  0  0  0  0
 16 17  1  0  0  0  0
 17 18  1  0  0  0  0
 18 19  1  0  0  0  0
 19 20  1  0  0  0  0
 22 23  1  0  0  0  0
 23 24  1  0  0  0  0
 24 25  2  0  0  0  0
 24 26  1  0  0  0  0
  3 27  1  0  0  0  0
  4 28  1  0  0  0  0
  4 29  1  0  0  0  0
 11 30  1  0  0  0  0
 11 31  1  0  0  0  0
 12 32  1  0  0  0  0
 13 33  1  0  0  0  0
 16 34  1  0  0  0  0
 17 35  1  0  0  0  0
 17 36  1  0  0  0  0
 18 37  1  0  0  0  0
 18 38  1  0  0  0  0
 19 39  1  0  0  0  0
 19 40  1  0  0  0  0
 20 41  1  0  0  0  0
 20 42  1  0  0  0  0
 21 43  1  0  0  0  0
 26 44  1  0  0  0  0
M  END
> <i_m_stars>
2

> <r_user_dG.exp>
-8.71754822596421

$$$$
23475
  -OEChem-05192314073D
 Structure written by MMmdl.
 44 46  0     0  0  0  0  0  0999 V2000
   41.4191   17.6003   11.9575 O   0  0  0  0  0  0  0  0  0  0  0  0
   40.5356   17.4939   12.8367 C   0  0  0  0  0  0  0  0  0  0  0  0
   39.4594   18.1303   12.8671 O   0  0  0  0  0  0  0  0  0  0  0  0
   40.7983   16.5073   13.9770 C   0  0  0  0  0  0  0  0  0  0  0  0
   42.0652   15.8703   13.8290 O   0  0  0  0  0  0  0  0  0  0  0  0
   42.3682   14.9604   14.7843 C   0  0  0  0  0  0  0  0  0  0  0  0
   41.8945   13.6150   14.7768 C   0  0  0  0  0  0  0  0  0  0  0  0
   40.7639   12.9503   13.3926 Br  0  0  0  0  0  0  0  0  0  0  0  0
   42.3354   12.8406   15.8190 C   0  0  0  0  0  0  0  0  0  0  0  0
   42.0585   11.4474   16.1564 C   0  0  0  0  0  0  0  0  0  0  0  0
   43.0853   10.6026   16.6322 C   0  0  0  0  0  0  0  0  0  0  0  0
   42.8174    9.2595   16.9591 C   0  0  0  0  0  0  0  0  0  0  0  0
   41.5160    8.7447   16.8124 C   0  0  0  0  0  0  0  0  0  0  0  0
   40.4830    9.5756   16.3374 C   0  0  0  0  0  0  0  0  0  0  0  0
   39.1988    9.0234   16.2104 N   0  0  0  0  0  0  0  0  0  0  0  0
   38.9954    7.6289   15.8731 C   0  0  0  0  0  0  0  0  0  0  0  0
   39.1357    7.3709   14.3719 C   0  0  0  0  0  0  0  0  0  0  0  0
   38.2665    6.1411   14.1220 C   0  0  0  0  0  0  0  0  0  0  0  0
   37.0665    6.3370   15.0501 C   0  0  0  0  0  0  0  0  0  0  0  0
   37.5932    7.1312   16.2550 C   0  0  0  0  0  0  0  0  0  0  0  0
   40.7558   10.9195   16.0117 C   0  0  0  0  0  0  0  0  0  0  0  0
   43.3865   13.7731   16.8529 S   0  0  0  0  0  0  0  0  0  0  0  0
   43.2022   15.2033   15.8529 C   0  0  0  0  0  0  0  0  0  0  0  0
   43.9483   16.4111   16.2795 C   0  0  0  0  0  0  0  0  0  0  0  0
   44.6544   16.3479   17.3096 O   0  0  0  0  0  0  0  0  0  0  0  0
   43.8504   17.4622   15.6071 O   0  0  0  0  0  0  0  0  0  0  0  0
   39.4131   18.7110   12.1167 H   0  0  0  0  0  0  0  0  0  0  0  0
   40.7802   17.0513   14.9329 H   0  0  0  0  0  0  0  0  0  0  0  0
   40.0095   15.7407   13.9764 H   0  0  0  0  0  0  0  0  0  0  0  0
   44.0866   10.9908   16.7465 H   0  0  0  0  0  0  0  0  0  0  0  0
   43.6113    8.6239   17.3227 H   0  0  0  0  0  0  0  0  0  0  0  0
   41.3099    7.7147   17.0635 H   0  0  0  0  0  0  0  0  0  0  0  0
   39.7369    7.0121   16.4020 H   0  0  0  0  0  0  0  0  0  0  0  0
   38.7705    8.2314   13.7921 H   0  0  0  0  0  0  0  0  0  0  0  0
   40.1839    7.1685   14.1069 H   0  0  0  0  0  0  0  0  0  0  0  0
   37.9443    6.0977   13.0711 H   0  0  0  0  0  0  0  0  0  0  0  0
   38.8109    5.2199   14.3769 H   0  0  0  0  0  0  0  0  0  0  0  0
   36.2736    6.9009   14.5369 H   0  0  0  0  0  0  0  0  0  0  0  0
   36.6718    5.3634   15.3762 H   0  0  0  0  0  0  0  0  0  0  0  0
   37.6490    6.4829   17.1419 H   0  0  0  0  0  0  0  0  0  0  0  0
   36.9318    7.9846   16.4656 H   0  0  0  0  0  0  0  0  0  0  0  0
   40.0958   11.5352   16.6405 H   0  0  0  0  0  0  0  0  0  0  0  0
   40.4803   11.0486   14.9546 H   0  0  0  0  0  0  0  0  0  0  0  0
   44.3778   18.1442   16.0061 H   0  0  0  0  0  0  0  0  0  0  0  0
  1  2  2  0  0  0  0
  2  3  1  0  0  0  0
  2  4  1  0  0  0  0
  4  5  1  0  0  0  0
  5  6  1  0  0  0  0
  6 23  2  0  0  0  0
  6  7  1  0  0  0  0
  7  8  1  0  0  0  0
  7  9  2  0  0  0  0
  9 10  1  0  0  0  0
  9 22  1  0  0  0  0
 10 21  1  0  0  0  0
 10 11  2  0  0  0  0
 11 12  1  0  0  0  0
 12 13  2  0  0  0  0
 13 14  1  0  0  0  0
 14 15  2  3  0  0  0
 14 21  1  0  0  0  0
 15 16  1  0  0  0  0
 16 20  1  0  0  0  0
 16 17  1  0  0  0  0
 17 18  1  0  0  0  0
 18 19  1  0  0  0  0
 19 20  1  0  0  0  0
 22 23  1  0  0  0  0
 23 24  1  0  0  0  0
 24 25  2  0  0  0  0
 24 26  1  0  0  0  0
  3 27  1  0  0  0  0
  4 28  1  0  0  0  0
  4 29  1  0  0  0  0
 11 30  1  0  0  0  0
 12 31  1  0  0  0  0
 13 32  1  0  0  0  0
 16 33  1  0  0  0  0
 17 34  1  0  0  0  0
 17 35  1  0  0  0  0
 18 36  1  0  0  0  0
 18 37  1  0  0  0  0
 19 38  1  0  0  0  0
 19 39  1  0  0  0  0
 20 40  1  0  0  0  0
 20 41  1  0  0  0  0
 21 42  1  0  0  0  0
 21 43  1  0  0  0  0
 26 44  1  0  0  0  0
M  END
> <i_m_stars>
2

> <r_user_dG.exp>
-8.71754822596421

$$$$
