23483
  -OEChem-05162309453D
 Structure written by MMmdl.
 59 62  0     0  0  0  0  0  0999 V2000
   41.5076   17.6533   11.6485 O   0  0  0  0  0  0  0  0  0  0  0  0
   40.5987   17.4811   12.4903 C   0  0  0  0  0  0  0  0  0  0  0  0
   39.4797   18.0394   12.4716 O   0  0  0  0  0  0  0  0  0  0  0  0
   40.8849   16.5382   13.6616 C   0  0  0  0  0  0  0  0  0  0  0  0
   42.1831   15.9568   13.5607 O   0  0  0  0  0  0  0  0  0  0  0  0
   42.5067   15.0961   14.5535 C   0  0  0  0  0  0  0  0  0  0  0  0
   42.1050   13.7638   14.6029 C   0  0  0  0  0  0  0  0  0  0  0  0
   41.1305   12.9484   13.1815 Br  0  0  0  0  0  0  0  0  0  0  0  0
   42.4736   13.0428   15.7309 C   0  0  0  0  0  0  0  0  0  0  0  0
   42.1345   11.6814   16.1187 C   0  0  0  0  0  0  0  0  0  0  0  0
   43.0991   10.8232   16.6550 C   0  0  0  0  0  0  0  0  0  0  0  0
   42.7730    9.5138   17.0059 C   0  0  0  0  0  0  0  0  0  0  0  0
   41.4767    9.0403   16.8075 C   0  0  0  0  0  0  0  0  0  0  0  0
   40.4943    9.8795   16.2662 C   0  0  0  0  0  0  0  0  0  0  0  0
   39.1733    9.4611   16.0229 N   0  0  0  0  0  0  0  0  0  0  0  0
   38.8803    8.0706   15.6816 C   0  0  0  0  0  0  0  0  0  0  0  0
   37.3499    7.8627   15.5714 C   0  0  0  0  0  0  0  0  0  0  0  0
   36.9746    6.4537   15.0726 C   0  0  0  0  0  0  0  0  0  0  0  0
   37.7104    6.1236   13.8434 N   0  0  0  0  0  0  0  0  0  0  0  0
   36.9907    5.9581   12.5378 S   0  0  0  0  0  0  0  0  0  0  0  0
   35.7144    6.6849   12.6224 O   0  0  0  0  0  0  0  0  0  0  0  0
   37.9478    6.2523   11.4601 O   0  0  0  0  0  0  0  0  0  0  0  0
   36.6716    4.1994   12.4996 C   0  0  0  0  0  0  0  0  0  0  0  0
   37.7586    3.3029   12.4915 C   0  0  0  0  0  0  0  0  0  0  0  0
   37.5162    1.9153   12.4802 C   0  0  0  0  0  0  0  0  0  0  0  0
   36.1926    1.4309   12.4791 C   0  0  0  0  0  0  0  0  0  0  0  0
   35.1089    2.3322   12.4905 C   0  0  0  0  0  0  0  0  0  0  0  0
   35.3462    3.7207   12.5036 C   0  0  0  0  0  0  0  0  0  0  0  0
   39.1749    6.2318   13.9220 C   0  0  0  0  0  0  0  0  0  0  0  0
   39.5890    7.6410   14.3716 C   0  0  0  0  0  0  0  0  0  0  0  0
   40.8302   11.1974   15.9487 C   0  0  0  0  0  0  0  0  0  0  0  0
   43.4983   14.0501   16.7177 S   0  0  0  0  0  0  0  0  0  0  0  0
   43.3217   15.4163   15.6304 C   0  0  0  0  0  0  0  0  0  0  0  0
   44.0454   16.6569   15.9983 C   0  0  0  0  0  0  0  0  0  0  0  0
   44.7330   16.6641   17.0426 O   0  0  0  0  0  0  0  0  0  0  0  0
   43.9488   17.6647   15.2624 O   0  0  0  0  0  0  0  0  0  0  0  0
   39.4254   18.6158   11.7184 H   0  0  0  0  0  0  0  0  0  0  0  0
   40.8199   17.1061   14.6014 H   0  0  0  0  0  0  0  0  0  0  0  0
   40.1332   15.7352   13.6656 H   0  0  0  0  0  0  0  0  0  0  0  0
   44.1087   11.1787   16.7992 H   0  0  0  0  0  0  0  0  0  0  0  0
   43.5250    8.8659   17.4316 H   0  0  0  0  0  0  0  0  0  0  0  0
   41.2291    8.0229   17.0721 H   0  0  0  0  0  0  0  0  0  0  0  0
   38.6516    9.6677   16.8506 H   0  0  0  0  0  0  0  0  0  0  0  0
   39.2490    7.4217   16.4897 H   0  0  0  0  0  0  0  0  0  0  0  0
   36.9018    8.0153   16.5643 H   0  0  0  0  0  0  0  0  0  0  0  0
   36.9439    8.6046   14.8680 H   0  0  0  0  0  0  0  0  0  0  0  0
   37.2232    5.7172   15.8509 H   0  0  0  0  0  0  0  0  0  0  0  0
   35.8945    6.4194   14.8670 H   0  0  0  0  0  0  0  0  0  0  0  0
   38.7716    3.6774   12.4939 H   0  0  0  0  0  0  0  0  0  0  0  0
   38.3447    1.2225   12.4724 H   0  0  0  0  0  0  0  0  0  0  0  0
   36.0083    0.3668   12.4695 H   0  0  0  0  0  0  0  0  0  0  0  0
   34.0958    1.9579   12.4892 H   0  0  0  0  0  0  0  0  0  0  0  0
   34.5179    4.4137   12.5166 H   0  0  0  0  0  0  0  0  0  0  0  0
   39.5536    5.4954   14.6461 H   0  0  0  0  0  0  0  0  0  0  0  0
   39.6063    6.0270   12.9311 H   0  0  0  0  0  0  0  0  0  0  0  0
   39.3294    8.3566   13.5775 H   0  0  0  0  0  0  0  0  0  0  0  0
   40.6765    7.6548   14.5364 H   0  0  0  0  0  0  0  0  0  0  0  0
   40.0678   11.8584   15.5636 H   0  0  0  0  0  0  0  0  0  0  0  0
   44.4615   18.3754   15.6291 H   0  0  0  0  0  0  0  0  0  0  0  0
  1  2  2  0  0  0  0
  2  3  1  0  0  0  0
  2  4  1  0  0  0  0
  4  5  1  0  0  0  0
  5  6  1  0  0  0  0
  6 33  2  0  0  0  0
  6  7  1  0  0  0  0
  7  8  1  0  0  0  0
  7  9  2  0  0  0  0
  9 10  1  0  0  0  0
  9 32  1  0  0  0  0
 10 31  2  0  0  0  0
 10 11  1  0  0  0  0
 11 12  2  0  0  0  0
 12 13  1  0  0  0  0
 13 14  2  0  0  0  0
 14 15  1  0  0  0  0
 14 31  1  0  0  0  0
 15 16  1  0  0  0  0
 16 30  1  0  0  0  0
 16 17  1  0  0  0  0
 17 18  1  0  0  0  0
 18 19  1  0  0  0  0
 19 20  1  0  0  0  0
 19 29  1  0  0  0  0
 20 21  2  0  0  0  0
 20 22  2  0  0  0  0
 20 23  1  0  0  0  0
 23 28  2  0  0  0  0
 23 24  1  0  0  0  0
 24 25  2  0  0  0  0
 25 26  1  0  0  0  0
 26 27  2  0  0  0  0
 27 28  1  0  0  0  0
 29 30  1  0  0  0  0
 32 33  1  0  0  0  0
 33 34  1  0  0  0  0
 34 35  2  0  0  0  0
 34 36  1  0  0  0  0
  3 37  1  0  0  0  0
  4 38  1  0  0  0  0
  4 39  1  0  0  0  0
 11 40  1  0  0  0  0
 12 41  1  0  0  0  0
 13 42  1  0  0  0  0
 15 43  1  0  0  0  0
 16 44  1  0  0  0  0
 17 45  1  0  0  0  0
 17 46  1  0  0  0  0
 18 47  1  0  0  0  0
 18 48  1  0  0  0  0
 24 49  1  0  0  0  0
 25 50  1  0  0  0  0
 26 51  1  0  0  0  0
 27 52  1  0  0  0  0
 28 53  1  0  0  0  0
 29 54  1  0  0  0  0
 29 55  1  0  0  0  0
 30 56  1  0  0  0  0
 30 57  1  0  0  0  0
 31 58  1  0  0  0  0
 36 59  1  0  0  0  0
M  END
> <i_m_stars>
2

> <r_user_dG.exp>
-9.8746881466035

$$$$
23483
  -OEChem-05162309453D
 Structure written by MMmdl.
 59 62  0     0  0  0  0  0  0999 V2000
   41.5076   17.6533   11.6485 O   0  0  0  0  0  0  0  0  0  0  0  0
   40.5987   17.4811   12.4903 C   0  0  0  0  0  0  0  0  0  0  0  0
   39.4797   18.0394   12.4716 O   0  0  0  0  0  0  0  0  0  0  0  0
   40.8849   16.5382   13.6616 C   0  0  0  0  0  0  0  0  0  0  0  0
   42.1831   15.9568   13.5607 O   0  0  0  0  0  0  0  0  0  0  0  0
   42.5067   15.0961   14.5535 C   0  0  0  0  0  0  0  0  0  0  0  0
   42.1050   13.7638   14.6029 C   0  0  0  0  0  0  0  0  0  0  0  0
   41.1305   12.9484   13.1815 Br  0  0  0  0  0  0  0  0  0  0  0  0
   42.4736   13.0428   15.7309 C   0  0  0  0  0  0  0  0  0  0  0  0
   42.1345   11.6814   16.1187 C   0  0  0  0  0  0  0  0  0  0  0  0
   43.0991   10.8232   16.6550 C   0  0  0  0  0  0  0  0  0  0  0  0
   42.7730    9.5138   17.0059 C   0  0  0  0  0  0  0  0  0  0  0  0
   41.4767    9.0403   16.8075 C   0  0  0  0  0  0  0  0  0  0  0  0
   40.4943    9.8795   16.2662 C   0  0  0  0  0  0  0  0  0  0  0  0
   39.1733    9.4611   16.0229 N   0  0  0  0  0  0  0  0  0  0  0  0
   38.8803    8.0706   15.6816 C   0  0  0  0  0  0  0  0  0  0  0  0
   37.3499    7.8627   15.5714 C   0  0  0  0  0  0  0  0  0  0  0  0
   36.9746    6.4537   15.0726 C   0  0  0  0  0  0  0  0  0  0  0  0
   37.7104    6.1236   13.8434 N   0  0  0  0  0  0  0  0  0  0  0  0
   36.9907    5.9581   12.5378 S   0  0  0  0  0  0  0  0  0  0  0  0
   35.7144    6.6849   12.6224 O   0  0  0  0  0  0  0  0  0  0  0  0
   37.9478    6.2523   11.4601 O   0  0  0  0  0  0  0  0  0  0  0  0
   36.6716    4.1994   12.4996 C   0  0  0  0  0  0  0  0  0  0  0  0
   37.7586    3.3029   12.4915 C   0  0  0  0  0  0  0  0  0  0  0  0
   37.5162    1.9153   12.4802 C   0  0  0  0  0  0  0  0  0  0  0  0
   36.1926    1.4309   12.4791 C   0  0  0  0  0  0  0  0  0  0  0  0
   35.1089    2.3322   12.4905 C   0  0  0  0  0  0  0  0  0  0  0  0
   35.3462    3.7207   12.5036 C   0  0  0  0  0  0  0  0  0  0  0  0
   39.1749    6.2318   13.9220 C   0  0  0  0  0  0  0  0  0  0  0  0
   39.5890    7.6410   14.3716 C   0  0  0  0  0  0  0  0  0  0  0  0
   40.8302   11.1974   15.9487 C   0  0  0  0  0  0  0  0  0  0  0  0
   43.4983   14.0501   16.7177 S   0  0  0  0  0  0  0  0  0  0  0  0
   43.3217   15.4163   15.6304 C   0  0  0  0  0  0  0  0  0  0  0  0
   44.0454   16.6569   15.9983 C   0  0  0  0  0  0  0  0  0  0  0  0
   44.7330   16.6641   17.0426 O   0  0  0  0  0  0  0  0  0  0  0  0
   43.9488   17.6647   15.2624 O   0  0  0  0  0  0  0  0  0  0  0  0
   39.4254   18.6158   11.7184 H   0  0  0  0  0  0  0  0  0  0  0  0
   40.8199   17.1061   14.6014 H   0  0  0  0  0  0  0  0  0  0  0  0
   40.1332   15.7352   13.6656 H   0  0  0  0  0  0  0  0  0  0  0  0
   44.1087   11.1787   16.7992 H   0  0  0  0  0  0  0  0  0  0  0  0
   43.5250    8.8659   17.4316 H   0  0  0  0  0  0  0  0  0  0  0  0
   41.5561    8.1723   16.1365 H   0  0  0  0  0  0  0  0  0  0  0  0
   41.1061    8.7118   17.7897 H   0  0  0  0  0  0  0  0  0  0  0  0
   39.2490    7.4217   16.4897 H   0  0  0  0  0  0  0  0  0  0  0  0
   36.9018    8.0153   16.5643 H   0  0  0  0  0  0  0  0  0  0  0  0
   36.9439    8.6046   14.8680 H   0  0  0  0  0  0  0  0  0  0  0  0
   37.2232    5.7172   15.8509 H   0  0  0  0  0  0  0  0  0  0  0  0
   35.8945    6.4194   14.8670 H   0  0  0  0  0  0  0  0  0  0  0  0
   38.7716    3.6774   12.4939 H   0  0  0  0  0  0  0  0  0  0  0  0
   38.3447    1.2225   12.4724 H   0  0  0  0  0  0  0  0  0  0  0  0
   36.0083    0.3668   12.4695 H   0  0  0  0  0  0  0  0  0  0  0  0
   34.0958    1.9579   12.4892 H   0  0  0  0  0  0  0  0  0  0  0  0
   34.5179    4.4137   12.5166 H   0  0  0  0  0  0  0  0  0  0  0  0
   39.5536    5.4954   14.6461 H   0  0  0  0  0  0  0  0  0  0  0  0
   39.6063    6.0270   12.9311 H   0  0  0  0  0  0  0  0  0  0  0  0
   39.3294    8.3566   13.5775 H   0  0  0  0  0  0  0  0  0  0  0  0
   40.6765    7.6548   14.5364 H   0  0  0  0  0  0  0  0  0  0  0  0
   40.0678   11.8584   15.5636 H   0  0  0  0  0  0  0  0  0  0  0  0
   44.4615   18.3754   15.6291 H   0  0  0  0  0  0  0  0  0  0  0  0
  1  2  2  0  0  0  0
  2  3  1  0  0  0  0
  2  4  1  0  0  0  0
  4  5  1  0  0  0  0
  5  6  1  0  0  0  0
  6 33  2  0  0  0  0
  6  7  1  0  0  0  0
  7  8  1  0  0  0  0
  7  9  2  0  0  0  0
  9 10  1  0  0  0  0
  9 32  1  0  0  0  0
 10 31  2  0  0  0  0
 10 11  1  0  0  0  0
 11 12  2  0  0  0  0
 12 13  1  0  0  0  0
 13 14  1  0  0  0  0
 14 15  2  3  0  0  0
 14 31  1  0  0  0  0
 15 16  1  0  0  0  0
 16 30  1  0  0  0  0
 16 17  1  0  0  0  0
 17 18  1  0  0  0  0
 18 19  1  0  0  0  0
 19 20  1  0  0  0  0
 19 29  1  0  0  0  0
 20 21  2  0  0  0  0
 20 22  2  0  0  0  0
 20 23  1  0  0  0  0
 23 28  2  0  0  0  0
 23 24  1  0  0  0  0
 24 25  2  0  0  0  0
 25 26  1  0  0  0  0
 26 27  2  0  0  0  0
 27 28  1  0  0  0  0
 29 30  1  0  0  0  0
 32 33  1  0  0  0  0
 33 34  1  0  0  0  0
 34 35  2  0  0  0  0
 34 36  1  0  0  0  0
  3 37  1  0  0  0  0
  4 38  1  0  0  0  0
  4 39  1  0  0  0  0
 11 40  1  0  0  0  0
 12 41  1  0  0  0  0
 13 42  1  0  0  0  0
 13 43  1  0  0  0  0
 16 44  1  0  0  0  0
 17 45  1  0  0  0  0
 17 46  1  0  0  0  0
 18 47  1  0  0  0  0
 18 48  1  0  0  0  0
 24 49  1  0  0  0  0
 25 50  1  0  0  0  0
 26 51  1  0  0  0  0
 27 52  1  0  0  0  0
 28 53  1  0  0  0  0
 29 54  1  0  0  0  0
 29 55  1  0  0  0  0
 30 56  1  0  0  0  0
 30 57  1  0  0  0  0
 31 58  1  0  0  0  0
 36 59  1  0  0  0  0
M  END
> <i_m_stars>
2

> <r_user_dG.exp>
-9.8746881466035

$$$$
23483
  -OEChem-05162309453D
 Structure written by MMmdl.
 59 62  0     0  0  0  0  0  0999 V2000
   41.5076   17.6533   11.6485 O   0  0  0  0  0  0  0  0  0  0  0  0
   40.5987   17.4811   12.4903 C   0  0  0  0  0  0  0  0  0  0  0  0
   39.4797   18.0394   12.4716 O   0  0  0  0  0  0  0  0  0  0  0  0
   40.8849   16.5382   13.6616 C   0  0  0  0  0  0  0  0  0  0  0  0
   42.1831   15.9568   13.5607 O   0  0  0  0  0  0  0  0  0  0  0  0
   42.5067   15.0961   14.5535 C   0  0  0  0  0  0  0  0  0  0  0  0
   42.1050   13.7638   14.6029 C   0  0  0  0  0  0  0  0  0  0  0  0
   41.1305   12.9484   13.1815 Br  0  0  0  0  0  0  0  0  0  0  0  0
   42.4736   13.0428   15.7309 C   0  0  0  0  0  0  0  0  0  0  0  0
   42.1345   11.6814   16.1187 C   0  0  0  0  0  0  0  0  0  0  0  0
   43.0991   10.8232   16.6550 C   0  0  0  0  0  0  0  0  0  0  0  0
   42.7730    9.5138   17.0059 C   0  0  0  0  0  0  0  0  0  0  0  0
   41.4767    9.0403   16.8075 C   0  0  0  0  0  0  0  0  0  0  0  0
   40.4943    9.8795   16.2662 C   0  0  0  0  0  0  0  0  0  0  0  0
   39.1733    9.4611   16.0229 N   0  0  0  0  0  0  0  0  0  0  0  0
   38.8803    8.0706   15.6816 C   0  0  0  0  0  0  0  0  0  0  0  0
   37.3499    7.8627   15.5714 C   0  0  0  0  0  0  0  0  0  0  0  0
   36.9746    6.4537   15.0726 C   0  0  0  0  0  0  0  0  0  0  0  0
   37.7104    6.1236   13.8434 N   0  0  0  0  0  0  0  0  0  0  0  0
   36.9907    5.9581   12.5378 S   0  0  0  0  0  0  0  0  0  0  0  0
   35.7144    6.6849   12.6224 O   0  0  0  0  0  0  0  0  0  0  0  0
   37.9478    6.2523   11.4601 O   0  0  0  0  0  0  0  0  0  0  0  0
   36.6716    4.1994   12.4996 C   0  0  0  0  0  0  0  0  0  0  0  0
   37.7586    3.3029   12.4915 C   0  0  0  0  0  0  0  0  0  0  0  0
   37.5162    1.9153   12.4802 C   0  0  0  0  0  0  0  0  0  0  0  0
   36.1926    1.4309   12.4791 C   0  0  0  0  0  0  0  0  0  0  0  0
   35.1089    2.3322   12.4905 C   0  0  0  0  0  0  0  0  0  0  0  0
   35.3462    3.7207   12.5036 C   0  0  0  0  0  0  0  0  0  0  0  0
   39.1749    6.2318   13.9220 C   0  0  0  0  0  0  0  0  0  0  0  0
   39.5890    7.6410   14.3716 C   0  0  0  0  0  0  0  0  0  0  0  0
   40.8302   11.1974   15.9487 C   0  0  0  0  0  0  0  0  0  0  0  0
   43.4983   14.0501   16.7177 S   0  0  0  0  0  0  0  0  0  0  0  0
   43.3217   15.4163   15.6304 C   0  0  0  0  0  0  0  0  0  0  0  0
   44.0454   16.6569   15.9983 C   0  0  0  0  0  0  0  0  0  0  0  0
   44.7330   16.6641   17.0426 O   0  0  0  0  0  0  0  0  0  0  0  0
   43.9488   17.6647   15.2624 O   0  0  0  0  0  0  0  0  0  0  0  0
   39.4254   18.6158   11.7184 H   0  0  0  0  0  0  0  0  0  0  0  0
   40.8199   17.1061   14.6014 H   0  0  0  0  0  0  0  0  0  0  0  0
   40.1332   15.7352   13.6656 H   0  0  0  0  0  0  0  0  0  0  0  0
   43.9079   10.7569   15.9124 H   0  0  0  0  0  0  0  0  0  0  0  0
   43.4777   11.3075   17.5672 H   0  0  0  0  0  0  0  0  0  0  0  0
   43.5250    8.8659   17.4316 H   0  0  0  0  0  0  0  0  0  0  0  0
   41.2291    8.0229   17.0721 H   0  0  0  0  0  0  0  0  0  0  0  0
   39.2490    7.4217   16.4897 H   0  0  0  0  0  0  0  0  0  0  0  0
   36.9018    8.0153   16.5643 H   0  0  0  0  0  0  0  0  0  0  0  0
   36.9439    8.6046   14.8680 H   0  0  0  0  0  0  0  0  0  0  0  0
   37.2232    5.7172   15.8509 H   0  0  0  0  0  0  0  0  0  0  0  0
   35.8945    6.4194   14.8670 H   0  0  0  0  0  0  0  0  0  0  0  0
   38.7716    3.6774   12.4939 H   0  0  0  0  0  0  0  0  0  0  0  0
   38.3447    1.2225   12.4724 H   0  0  0  0  0  0  0  0  0  0  0  0
   36.0083    0.3668   12.4695 H   0  0  0  0  0  0  0  0  0  0  0  0
   34.0958    1.9579   12.4892 H   0  0  0  0  0  0  0  0  0  0  0  0
   34.5179    4.4137   12.5166 H   0  0  0  0  0  0  0  0  0  0  0  0
   39.5536    5.4954   14.6461 H   0  0  0  0  0  0  0  0  0  0  0  0
   39.6063    6.0270   12.9311 H   0  0  0  0  0  0  0  0  0  0  0  0
   39.3294    8.3566   13.5775 H   0  0  0  0  0  0  0  0  0  0  0  0
   40.6765    7.6548   14.5364 H   0  0  0  0  0  0  0  0  0  0  0  0
   40.0678   11.8584   15.5636 H   0  0  0  0  0  0  0  0  0  0  0  0
   44.4615   18.3754   15.6291 H   0  0  0  0  0  0  0  0  0  0  0  0
  1  2  2  0  0  0  0
  2  3  1  0  0  0  0
  2  4  1  0  0  0  0
  4  5  1  0  0  0  0
  5  6  1  0  0  0  0
  6 33  2  0  0  0  0
  6  7  1  0  0  0  0
  7  8  1  0  0  0  0
  7  9  2  0  0  0  0
  9 10  1  0  0  0  0
  9 32  1  0  0  0  0
 10 31  2  0  0  0  0
 10 11  1  0  0  0  0
 11 12  1  0  0  0  0
 12 13  2  0  0  0  0
 13 14  1  0  0  0  0
 14 15  2  3  0  0  0
 14 31  1  0  0  0  0
 15 16  1  0  0  0  0
 16 30  1  0  0  0  0
 16 17  1  0  0  0  0
 17 18  1  0  0  0  0
 18 19  1  0  0  0  0
 19 20  1  0  0  0  0
 19 29  1  0  0  0  0
 20 21  2  0  0  0  0
 20 22  2  0  0  0  0
 20 23  1  0  0  0  0
 23 28  2  0  0  0  0
 23 24  1  0  0  0  0
 24 25  2  0  0  0  0
 25 26  1  0  0  0  0
 26 27  2  0  0  0  0
 27 28  1  0  0  0  0
 29 30  1  0  0  0  0
 32 33  1  0  0  0  0
 33 34  1  0  0  0  0
 34 35  2  0  0  0  0
 34 36  1  0  0  0  0
  3 37  1  0  0  0  0
  4 38  1  0  0  0  0
  4 39  1  0  0  0  0
 11 40  1  0  0  0  0
 11 41  1  0  0  0  0
 12 42  1  0  0  0  0
 13 43  1  0  0  0  0
 16 44  1  0  0  0  0
 17 45  1  0  0  0  0
 17 46  1  0  0  0  0
 18 47  1  0  0  0  0
 18 48  1  0  0  0  0
 24 49  1  0  0  0  0
 25 50  1  0  0  0  0
 26 51  1  0  0  0  0
 27 52  1  0  0  0  0
 28 53  1  0  0  0  0
 29 54  1  0  0  0  0
 29 55  1  0  0  0  0
 30 56  1  0  0  0  0
 30 57  1  0  0  0  0
 31 58  1  0  0  0  0
 36 59  1  0  0  0  0
M  END
> <i_m_stars>
2

> <r_user_dG.exp>
-9.8746881466035

$$$$
23483
  -OEChem-05162309453D
 Structure written by MMmdl.
 59 62  0     0  0  0  0  0  0999 V2000
   41.5076   17.6533   11.6485 O   0  0  0  0  0  0  0  0  0  0  0  0
   40.5987   17.4811   12.4903 C   0  0  0  0  0  0  0  0  0  0  0  0
   39.4797   18.0394   12.4716 O   0  0  0  0  0  0  0  0  0  0  0  0
   40.8849   16.5382   13.6616 C   0  0  0  0  0  0  0  0  0  0  0  0
   42.1831   15.9568   13.5607 O   0  0  0  0  0  0  0  0  0  0  0  0
   42.5067   15.0961   14.5535 C   0  0  0  0  0  0  0  0  0  0  0  0
   42.1050   13.7638   14.6029 C   0  0  0  0  0  0  0  0  0  0  0  0
   41.1305   12.9484   13.1815 Br  0  0  0  0  0  0  0  0  0  0  0  0
   42.4736   13.0428   15.7309 C   0  0  0  0  0  0  0  0  0  0  0  0
   42.1345   11.6814   16.1187 C   0  0  0  0  0  0  0  0  0  0  0  0
   43.0991   10.8232   16.6550 C   0  0  0  0  0  0  0  0  0  0  0  0
   42.7730    9.5138   17.0059 C   0  0  0  0  0  0  0  0  0  0  0  0
   41.4767    9.0403   16.8075 C   0  0  0  0  0  0  0  0  0  0  0  0
   40.4943    9.8795   16.2662 C   0  0  0  0  0  0  0  0  0  0  0  0
   39.1733    9.4611   16.0229 N   0  0  0  0  0  0  0  0  0  0  0  0
   38.8803    8.0706   15.6816 C   0  0  0  0  0  0  0  0  0  0  0  0
   37.3499    7.8627   15.5714 C   0  0  0  0  0  0  0  0  0  0  0  0
   36.9746    6.4537   15.0726 C   0  0  0  0  0  0  0  0  0  0  0  0
   37.7104    6.1236   13.8434 N   0  0  0  0  0  0  0  0  0  0  0  0
   36.9907    5.9581   12.5378 S   0  0  0  0  0  0  0  0  0  0  0  0
   35.7144    6.6849   12.6224 O   0  0  0  0  0  0  0  0  0  0  0  0
   37.9478    6.2523   11.4601 O   0  0  0  0  0  0  0  0  0  0  0  0
   36.6716    4.1994   12.4996 C   0  0  0  0  0  0  0  0  0  0  0  0
   37.7586    3.3029   12.4915 C   0  0  0  0  0  0  0  0  0  0  0  0
   37.5162    1.9153   12.4802 C   0  0  0  0  0  0  0  0  0  0  0  0
   36.1926    1.4309   12.4791 C   0  0  0  0  0  0  0  0  0  0  0  0
   35.1089    2.3322   12.4905 C   0  0  0  0  0  0  0  0  0  0  0  0
   35.3462    3.7207   12.5036 C   0  0  0  0  0  0  0  0  0  0  0  0
   39.1749    6.2318   13.9220 C   0  0  0  0  0  0  0  0  0  0  0  0
   39.5890    7.6410   14.3716 C   0  0  0  0  0  0  0  0  0  0  0  0
   40.8302   11.1974   15.9487 C   0  0  0  0  0  0  0  0  0  0  0  0
   43.4983   14.0501   16.7177 S   0  0  0  0  0  0  0  0  0  0  0  0
   43.3217   15.4163   15.6304 C   0  0  0  0  0  0  0  0  0  0  0  0
   44.0454   16.6569   15.9983 C   0  0  0  0  0  0  0  0  0  0  0  0
   44.7330   16.6641   17.0426 O   0  0  0  0  0  0  0  0  0  0  0  0
   43.9488   17.6647   15.2624 O   0  0  0  0  0  0  0  0  0  0  0  0
   39.4254   18.6158   11.7184 H   0  0  0  0  0  0  0  0  0  0  0  0
   40.8199   17.1061   14.6014 H   0  0  0  0  0  0  0  0  0  0  0  0
   40.1332   15.7352   13.6656 H   0  0  0  0  0  0  0  0  0  0  0  0
   44.1087   11.1787   16.7992 H   0  0  0  0  0  0  0  0  0  0  0  0
   43.5250    8.8659   17.4316 H   0  0  0  0  0  0  0  0  0  0  0  0
   41.2291    8.0229   17.0721 H   0  0  0  0  0  0  0  0  0  0  0  0
   39.2490    7.4217   16.4897 H   0  0  0  0  0  0  0  0  0  0  0  0
   36.9018    8.0153   16.5643 H   0  0  0  0  0  0  0  0  0  0  0  0
   36.9439    8.6046   14.8680 H   0  0  0  0  0  0  0  0  0  0  0  0
   37.2232    5.7172   15.8509 H   0  0  0  0  0  0  0  0  0  0  0  0
   35.8945    6.4194   14.8670 H   0  0  0  0  0  0  0  0  0  0  0  0
   38.7716    3.6774   12.4939 H   0  0  0  0  0  0  0  0  0  0  0  0
   38.3447    1.2225   12.4724 H   0  0  0  0  0  0  0  0  0  0  0  0
   36.0083    0.3668   12.4695 H   0  0  0  0  0  0  0  0  0  0  0  0
   34.0958    1.9579   12.4892 H   0  0  0  0  0  0  0  0  0  0  0  0
   34.5179    4.4137   12.5166 H   0  0  0  0  0  0  0  0  0  0  0  0
   39.5536    5.4954   14.6461 H   0  0  0  0  0  0  0  0  0  0  0  0
   39.6063    6.0270   12.9311 H   0  0  0  0  0  0  0  0  0  0  0  0
   39.3294    8.3566   13.5775 H   0  0  0  0  0  0  0  0  0  0  0  0
   40.6765    7.6548   14.5364 H   0  0  0  0  0  0  0  0  0  0  0  0
   40.1787   11.8396   16.5595 H   0  0  0  0  0  0  0  0  0  0  0  0
   40.5851   11.3326   14.8849 H   0  0  0  0  0  0  0  0  0  0  0  0
   44.4615   18.3754   15.6291 H   0  0  0  0  0  0  0  0  0  0  0  0
  1  2  2  0  0  0  0
  2  3  1  0  0  0  0
  2  4  1  0  0  0  0
  4  5  1  0  0  0  0
  5  6  1  0  0  0  0
  6 33  2  0  0  0  0
  6  7  1  0  0  0  0
  7  8  1  0  0  0  0
  7  9  2  0  0  0  0
  9 10  1  0  0  0  0
  9 32  1  0  0  0  0
 10 31  1  0  0  0  0
 10 11  2  0  0  0  0
 11 12  1  0  0  0  0
 12 13  2  0  0  0  0
 13 14  1  0  0  0  0
 14 15  2  3  0  0  0
 14 31  1  0  0  0  0
 15 16  1  0  0  0  0
 16 30  1  0  0  0  0
 16 17  1  0  0  0  0
 17 18  1  0  0  0  0
 18 19  1  0  0  0  0
 19 20  1  0  0  0  0
 19 29  1  0  0  0  0
 20 21  2  0  0  0  0
 20 22  2  0  0  0  0
 20 23  1  0  0  0  0
 23 28  2  0  0  0  0
 23 24  1  0  0  0  0
 24 25  2  0  0  0  0
 25 26  1  0  0  0  0
 26 27  2  0  0  0  0
 27 28  1  0  0  0  0
 29 30  1  0  0  0  0
 32 33  1  0  0  0  0
 33 34  1  0  0  0  0
 34 35  2  0  0  0  0
 34 36  1  0  0  0  0
  3 37  1  0  0  0  0
  4 38  1  0  0  0  0
  4 39  1  0  0  0  0
 11 40  1  0  0  0  0
 12 41  1  0  0  0  0
 13 42  1  0  0  0  0
 16 43  1  0  0  0  0
 17 44  1  0  0  0  0
 17 45  1  0  0  0  0
 18 46  1  0  0  0  0
 18 47  1  0  0  0  0
 24 48  1  0  0  0  0
 25 49  1  0  0  0  0
 26 50  1  0  0  0  0
 27 51  1  0  0  0  0
 28 52  1  0  0  0  0
 29 53  1  0  0  0  0
 29 54  1  0  0  0  0
 30 55  1  0  0  0  0
 30 56  1  0  0  0  0
 31 57  1  0  0  0  0
 31 58  1  0  0  0  0
 36 59  1  0  0  0  0
M  END
> <i_m_stars>
2

> <r_user_dG.exp>
-9.8746881466035

$$$$
