23468
  -OEChem-05162309453D
 Structure written by MMmdl.
 39 40  0     0  0  0  0  0  0999 V2000
   37.3038    6.0207   14.7782 C   0  0  0  0  0  0  0  0  0  0  0  0
   37.5441    7.3857   15.4416 C   0  0  0  0  0  0  0  0  0  0  0  0
   39.0107    7.6228   15.8168 C   0  0  0  0  0  0  0  0  0  0  0  0
   39.7628    6.6642   15.9916 O   0  0  0  0  0  0  0  0  0  0  0  0
   39.3847    8.9129   15.9015 N   0  0  0  0  0  0  0  0  0  0  0  0
   40.6707    9.4518   16.1790 C   0  0  0  0  0  0  0  0  0  0  0  0
   41.6984    8.7040   16.7853 C   0  0  0  0  0  0  0  0  0  0  0  0
   42.9338    9.3143   17.0710 C   0  0  0  0  0  0  0  0  0  0  0  0
   43.1410   10.6700   16.7518 C   0  0  0  0  0  0  0  0  0  0  0  0
   42.1184   11.4322   16.1450 C   0  0  0  0  0  0  0  0  0  0  0  0
   42.3322   12.8383   15.8154 C   0  0  0  0  0  0  0  0  0  0  0  0
   43.1854   13.8565   16.9461 S   0  0  0  0  0  0  0  0  0  0  0  0
   43.0171   15.2585   15.9044 C   0  0  0  0  0  0  0  0  0  0  0  0
   43.6041   16.5277   16.3926 C   0  0  0  0  0  0  0  0  0  0  0  0
   43.5028   17.5484   15.6779 O   0  0  0  0  0  0  0  0  0  0  0  0
   44.1829   16.5486   17.5021 O   0  0  0  0  0  0  0  0  0  0  0  0
   42.3335   14.9436   14.7511 C   0  0  0  0  0  0  0  0  0  0  0  0
   42.0634   15.8257   13.7651 O   0  0  0  0  0  0  0  0  0  0  0  0
   40.9041   16.6162   13.9936 C   0  0  0  0  0  0  0  0  0  0  0  0
   40.4217   17.2724   12.6981 C   0  0  0  0  0  0  0  0  0  0  0  0
   41.2809   17.6281   11.8606 O   0  0  0  0  0  0  0  0  0  0  0  0
   39.1845   17.3898   12.5564 O   0  0  0  0  0  0  0  0  0  0  0  0
   41.9618   13.5670   14.7145 C   0  0  0  0  0  0  0  0  0  0  0  0
   40.9942   12.8290   13.2469 Br  0  0  0  0  0  0  0  0  0  0  0  0
   40.8826   10.8086   15.8614 C   0  0  0  0  0  0  0  0  0  0  0  0
   36.2364    5.9135   14.5348 H   0  0  0  0  0  0  0  0  0  0  0  0
   37.8988    5.9517   13.8556 H   0  0  0  0  0  0  0  0  0  0  0  0
   37.6044    5.2193   15.4692 H   0  0  0  0  0  0  0  0  0  0  0  0
   37.2298    8.1747   14.7425 H   0  0  0  0  0  0  0  0  0  0  0  0
   36.9354    7.4423   16.3561 H   0  0  0  0  0  0  0  0  0  0  0  0
   38.6592    9.5838   15.7484 H   0  0  0  0  0  0  0  0  0  0  0  0
   41.5388    7.6644   17.0305 H   0  0  0  0  0  0  0  0  0  0  0  0
   43.7236    8.7425   17.5354 H   0  0  0  0  0  0  0  0  0  0  0  0
   44.0918   11.1318   16.9733 H   0  0  0  0  0  0  0  0  0  0  0  0
   44.5032   17.4259   17.6762 H   0  0  0  0  0  0  0  0  0  0  0  0
   40.1040   15.9744   14.3910 H   0  0  0  0  0  0  0  0  0  0  0  0
   41.1428   17.4008   14.7267 H   0  0  0  0  0  0  0  0  0  0  0  0
   38.9982   17.7904   11.7154 H   0  0  0  0  0  0  0  0  0  0  0  0
   40.0916   11.3779   15.3961 H   0  0  0  0  0  0  0  0  0  0  0  0
  1  2  1  0  0  0  0
  2  3  1  0  0  0  0
  3  4  2  0  0  0  0
  3  5  1  0  0  0  0
  5  6  1  0  0  0  0
  6 25  2  0  0  0  0
  6  7  1  0  0  0  0
  7  8  2  0  0  0  0
  8  9  1  0  0  0  0
  9 10  2  0  0  0  0
 10 11  1  0  0  0  0
 10 25  1  0  0  0  0
 11 23  2  0  0  0  0
 11 12  1  0  0  0  0
 12 13  1  0  0  0  0
 13 14  1  0  0  0  0
 13 17  2  0  0  0  0
 14 15  2  0  0  0  0
 14 16  1  0  0  0  0
 17 18  1  0  0  0  0
 17 23  1  0  0  0  0
 18 19  1  0  0  0  0
 19 20  1  0  0  0  0
 20 21  2  0  0  0  0
 20 22  1  0  0  0  0
 23 24  1  0  0  0  0
  1 26  1  0  0  0  0
  1 27  1  0  0  0  0
  1 28  1  0  0  0  0
  2 29  1  0  0  0  0
  2 30  1  0  0  0  0
  5 31  1  0  0  0  0
  7 32  1  0  0  0  0
  8 33  1  0  0  0  0
  9 34  1  0  0  0  0
 16 35  1  0  0  0  0
 19 36  1  0  0  0  0
 19 37  1  0  0  0  0
 22 38  1  0  0  0  0
 25 39  1  0  0  0  0
M  END
> <i_m_stars>
2

> <r_user_dG.exp>
-7.75184064198728

$$$$
23468
  -OEChem-05162309453D
 Structure written by MMmdl.
 39 40  0     0  0  0  0  0  0999 V2000
   37.3038    6.0207   14.7782 C   0  0  0  0  0  0  0  0  0  0  0  0
   37.5441    7.3857   15.4416 C   0  0  0  0  0  0  0  0  0  0  0  0
   39.0107    7.6228   15.8168 C   0  0  0  0  0  0  0  0  0  0  0  0
   39.7628    6.6642   15.9916 O   0  0  0  0  0  0  0  0  0  0  0  0
   39.3847    8.9129   15.9015 N   0  0  0  0  0  0  0  0  0  0  0  0
   40.6707    9.4518   16.1790 C   0  0  0  0  0  0  0  0  0  0  0  0
   41.6984    8.7040   16.7853 C   0  0  0  0  0  0  0  0  0  0  0  0
   42.9338    9.3143   17.0710 C   0  0  0  0  0  0  0  0  0  0  0  0
   43.1410   10.6700   16.7518 C   0  0  0  0  0  0  0  0  0  0  0  0
   42.1184   11.4322   16.1450 C   0  0  0  0  0  0  0  0  0  0  0  0
   42.3322   12.8383   15.8154 C   0  0  0  0  0  0  0  0  0  0  0  0
   43.1854   13.8565   16.9461 S   0  0  0  0  0  0  0  0  0  0  0  0
   43.0171   15.2585   15.9044 C   0  0  0  0  0  0  0  0  0  0  0  0
   43.6041   16.5277   16.3926 C   0  0  0  0  0  0  0  0  0  0  0  0
   43.5028   17.5484   15.6779 O   0  0  0  0  0  0  0  0  0  0  0  0
   44.1829   16.5486   17.5021 O   0  0  0  0  0  0  0  0  0  0  0  0
   42.3335   14.9436   14.7511 C   0  0  0  0  0  0  0  0  0  0  0  0
   42.0634   15.8257   13.7651 O   0  0  0  0  0  0  0  0  0  0  0  0
   40.9041   16.6162   13.9936 C   0  0  0  0  0  0  0  0  0  0  0  0
   40.4217   17.2724   12.6981 C   0  0  0  0  0  0  0  0  0  0  0  0
   41.2809   17.6281   11.8606 O   0  0  0  0  0  0  0  0  0  0  0  0
   39.1845   17.3898   12.5564 O   0  0  0  0  0  0  0  0  0  0  0  0
   41.9618   13.5670   14.7145 C   0  0  0  0  0  0  0  0  0  0  0  0
   40.9942   12.8290   13.2469 Br  0  0  0  0  0  0  0  0  0  0  0  0
   40.8826   10.8086   15.8614 C   0  0  0  0  0  0  0  0  0  0  0  0
   36.2364    5.9135   14.5348 H   0  0  0  0  0  0  0  0  0  0  0  0
   37.8988    5.9517   13.8556 H   0  0  0  0  0  0  0  0  0  0  0  0
   37.6044    5.2193   15.4692 H   0  0  0  0  0  0  0  0  0  0  0  0
   37.2298    8.1747   14.7425 H   0  0  0  0  0  0  0  0  0  0  0  0
   36.9354    7.4423   16.3561 H   0  0  0  0  0  0  0  0  0  0  0  0
   40.6305    6.9788   16.2164 H   0  0  0  0  0  0  0  0  0  0  0  0
   41.5388    7.6644   17.0305 H   0  0  0  0  0  0  0  0  0  0  0  0
   43.7236    8.7425   17.5354 H   0  0  0  0  0  0  0  0  0  0  0  0
   44.0918   11.1318   16.9733 H   0  0  0  0  0  0  0  0  0  0  0  0
   44.5032   17.4259   17.6762 H   0  0  0  0  0  0  0  0  0  0  0  0
   40.1040   15.9744   14.3910 H   0  0  0  0  0  0  0  0  0  0  0  0
   41.1428   17.4008   14.7267 H   0  0  0  0  0  0  0  0  0  0  0  0
   38.9982   17.7904   11.7154 H   0  0  0  0  0  0  0  0  0  0  0  0
   40.0916   11.3779   15.3961 H   0  0  0  0  0  0  0  0  0  0  0  0
  1  2  1  0  0  0  0
  2  3  1  0  0  0  0
  3  4  1  0  0  0  0
  3  5  2  0  0  0  0
  5  6  1  0  0  0  0
  6 25  2  0  0  0  0
  6  7  1  0  0  0  0
  7  8  2  0  0  0  0
  8  9  1  0  0  0  0
  9 10  2  0  0  0  0
 10 11  1  0  0  0  0
 10 25  1  0  0  0  0
 11 23  2  0  0  0  0
 11 12  1  0  0  0  0
 12 13  1  0  0  0  0
 13 14  1  0  0  0  0
 13 17  2  0  0  0  0
 14 15  2  0  0  0  0
 14 16  1  0  0  0  0
 17 18  1  0  0  0  0
 17 23  1  0  0  0  0
 18 19  1  0  0  0  0
 19 20  1  0  0  0  0
 20 21  2  0  0  0  0
 20 22  1  0  0  0  0
 23 24  1  0  0  0  0
  1 26  1  0  0  0  0
  1 27  1  0  0  0  0
  1 28  1  0  0  0  0
  2 29  1  0  0  0  0
  2 30  1  0  0  0  0
  4 31  1  0  0  0  0
  7 32  1  0  0  0  0
  8 33  1  0  0  0  0
  9 34  1  0  0  0  0
 16 35  1  0  0  0  0
 19 36  1  0  0  0  0
 19 37  1  0  0  0  0
 22 38  1  0  0  0  0
 25 39  1  0  0  0  0
M  END
> <i_m_stars>
2

> <r_user_dG.exp>
-7.75184064198728

$$$$
23468
  -OEChem-05162309453D
 Structure written by MMmdl.
 39 40  0     0  0  0  0  0  0999 V2000
   37.3038    6.0207   14.7782 C   0  0  0  0  0  0  0  0  0  0  0  0
   37.5441    7.3857   15.4416 C   0  0  0  0  0  0  0  0  0  0  0  0
   39.0107    7.6228   15.8168 C   0  0  0  0  0  0  0  0  0  0  0  0
   39.7628    6.6642   15.9916 O   0  0  0  0  0  0  0  0  0  0  0  0
   39.3847    8.9129   15.9015 N   0  0  0  0  0  0  0  0  0  0  0  0
   40.6707    9.4518   16.1790 C   0  0  0  0  0  0  0  0  0  0  0  0
   41.6984    8.7040   16.7853 C   0  0  0  0  0  0  0  0  0  0  0  0
   42.9338    9.3143   17.0710 C   0  0  0  0  0  0  0  0  0  0  0  0
   43.1410   10.6700   16.7518 C   0  0  0  0  0  0  0  0  0  0  0  0
   42.1184   11.4322   16.1450 C   0  0  0  0  0  0  0  0  0  0  0  0
   42.3322   12.8383   15.8154 C   0  0  0  0  0  0  0  0  0  0  0  0
   43.1854   13.8565   16.9461 S   0  0  0  0  0  0  0  0  0  0  0  0
   43.0171   15.2585   15.9044 C   0  0  0  0  0  0  0  0  0  0  0  0
   43.6041   16.5277   16.3926 C   0  0  0  0  0  0  0  0  0  0  0  0
   43.5028   17.5484   15.6779 O   0  0  0  0  0  0  0  0  0  0  0  0
   44.1829   16.5486   17.5021 O   0  0  0  0  0  0  0  0  0  0  0  0
   42.3335   14.9436   14.7511 C   0  0  0  0  0  0  0  0  0  0  0  0
   42.0634   15.8257   13.7651 O   0  0  0  0  0  0  0  0  0  0  0  0
   40.9041   16.6162   13.9936 C   0  0  0  0  0  0  0  0  0  0  0  0
   40.4217   17.2724   12.6981 C   0  0  0  0  0  0  0  0  0  0  0  0
   41.2809   17.6281   11.8606 O   0  0  0  0  0  0  0  0  0  0  0  0
   39.1845   17.3898   12.5564 O   0  0  0  0  0  0  0  0  0  0  0  0
   41.9618   13.5670   14.7145 C   0  0  0  0  0  0  0  0  0  0  0  0
   40.9942   12.8290   13.2469 Br  0  0  0  0  0  0  0  0  0  0  0  0
   40.8826   10.8086   15.8614 C   0  0  0  0  0  0  0  0  0  0  0  0
   36.2364    5.9135   14.5348 H   0  0  0  0  0  0  0  0  0  0  0  0
   37.8988    5.9517   13.8556 H   0  0  0  0  0  0  0  0  0  0  0  0
   37.6044    5.2193   15.4692 H   0  0  0  0  0  0  0  0  0  0  0  0
   37.2298    8.1747   14.7425 H   0  0  0  0  0  0  0  0  0  0  0  0
   36.9354    7.4423   16.3561 H   0  0  0  0  0  0  0  0  0  0  0  0
   41.2995    8.3307   17.7400 H   0  0  0  0  0  0  0  0  0  0  0  0
   41.9096    7.8547   16.1189 H   0  0  0  0  0  0  0  0  0  0  0  0
   43.7236    8.7425   17.5354 H   0  0  0  0  0  0  0  0  0  0  0  0
   44.0918   11.1318   16.9733 H   0  0  0  0  0  0  0  0  0  0  0  0
   44.5032   17.4259   17.6762 H   0  0  0  0  0  0  0  0  0  0  0  0
   40.1040   15.9744   14.3910 H   0  0  0  0  0  0  0  0  0  0  0  0
   41.1428   17.4008   14.7267 H   0  0  0  0  0  0  0  0  0  0  0  0
   38.9982   17.7904   11.7154 H   0  0  0  0  0  0  0  0  0  0  0  0
   40.0916   11.3779   15.3961 H   0  0  0  0  0  0  0  0  0  0  0  0
  1  2  1  0  0  0  0
  2  3  1  0  0  0  0
  3  4  2  0  0  0  0
  3  5  1  0  0  0  0
  5  6  2  0  0  0  0
  6 25  1  0  0  0  0
  6  7  1  0  0  0  0
  7  8  1  0  0  0  0
  8  9  2  0  0  0  0
  9 10  1  0  0  0  0
 10 11  1  0  0  0  0
 10 25  2  0  0  0  0
 11 23  2  0  0  0  0
 11 12  1  0  0  0  0
 12 13  1  0  0  0  0
 13 14  1  0  0  0  0
 13 17  2  0  0  0  0
 14 15  2  0  0  0  0
 14 16  1  0  0  0  0
 17 18  1  0  0  0  0
 17 23  1  0  0  0  0
 18 19  1  0  0  0  0
 19 20  1  0  0  0  0
 20 21  2  0  0  0  0
 20 22  1  0  0  0  0
 23 24  1  0  0  0  0
  1 26  1  0  0  0  0
  1 27  1  0  0  0  0
  1 28  1  0  0  0  0
  2 29  1  0  0  0  0
  2 30  1  0  0  0  0
  7 31  1  0  0  0  0
  7 32  1  0  0  0  0
  8 33  1  0  0  0  0
  9 34  1  0  0  0  0
 16 35  1  0  0  0  0
 19 36  1  0  0  0  0
 19 37  1  0  0  0  0
 22 38  1  0  0  0  0
 25 39  1  0  0  0  0
M  END
> <i_m_stars>
2

> <r_user_dG.exp>
-7.75184064198728

$$$$
23468
  -OEChem-05162309453D
 Structure written by MMmdl.
 39 40  0     0  0  0  0  0  0999 V2000
   37.3038    6.0207   14.7782 C   0  0  0  0  0  0  0  0  0  0  0  0
   37.5441    7.3857   15.4416 C   0  0  0  0  0  0  0  0  0  0  0  0
   39.0107    7.6228   15.8168 C   0  0  0  0  0  0  0  0  0  0  0  0
   39.7628    6.6642   15.9916 O   0  0  0  0  0  0  0  0  0  0  0  0
   39.3847    8.9129   15.9015 N   0  0  0  0  0  0  0  0  0  0  0  0
   40.6707    9.4518   16.1790 C   0  0  0  0  0  0  0  0  0  0  0  0
   41.6984    8.7040   16.7853 C   0  0  0  0  0  0  0  0  0  0  0  0
   42.9338    9.3143   17.0710 C   0  0  0  0  0  0  0  0  0  0  0  0
   43.1410   10.6700   16.7518 C   0  0  0  0  0  0  0  0  0  0  0  0
   42.1184   11.4322   16.1450 C   0  0  0  0  0  0  0  0  0  0  0  0
   42.3322   12.8383   15.8154 C   0  0  0  0  0  0  0  0  0  0  0  0
   43.1854   13.8565   16.9461 S   0  0  0  0  0  0  0  0  0  0  0  0
   43.0171   15.2585   15.9044 C   0  0  0  0  0  0  0  0  0  0  0  0
   43.6041   16.5277   16.3926 C   0  0  0  0  0  0  0  0  0  0  0  0
   43.5028   17.5484   15.6779 O   0  0  0  0  0  0  0  0  0  0  0  0
   44.1829   16.5486   17.5021 O   0  0  0  0  0  0  0  0  0  0  0  0
   42.3335   14.9436   14.7511 C   0  0  0  0  0  0  0  0  0  0  0  0
   42.0634   15.8257   13.7651 O   0  0  0  0  0  0  0  0  0  0  0  0
   40.9041   16.6162   13.9936 C   0  0  0  0  0  0  0  0  0  0  0  0
   40.4217   17.2724   12.6981 C   0  0  0  0  0  0  0  0  0  0  0  0
   41.2809   17.6281   11.8606 O   0  0  0  0  0  0  0  0  0  0  0  0
   39.1845   17.3898   12.5564 O   0  0  0  0  0  0  0  0  0  0  0  0
   41.9618   13.5670   14.7145 C   0  0  0  0  0  0  0  0  0  0  0  0
   40.9942   12.8290   13.2469 Br  0  0  0  0  0  0  0  0  0  0  0  0
   40.8826   10.8086   15.8614 C   0  0  0  0  0  0  0  0  0  0  0  0
   36.2364    5.9135   14.5348 H   0  0  0  0  0  0  0  0  0  0  0  0
   37.8988    5.9517   13.8556 H   0  0  0  0  0  0  0  0  0  0  0  0
   37.6044    5.2193   15.4692 H   0  0  0  0  0  0  0  0  0  0  0  0
   37.2298    8.1747   14.7425 H   0  0  0  0  0  0  0  0  0  0  0  0
   36.9354    7.4423   16.3561 H   0  0  0  0  0  0  0  0  0  0  0  0
   41.5388    7.6644   17.0305 H   0  0  0  0  0  0  0  0  0  0  0  0
   43.7236    8.7425   17.5354 H   0  0  0  0  0  0  0  0  0  0  0  0
   43.3959   11.1790   17.6930 H   0  0  0  0  0  0  0  0  0  0  0  0
   44.0044   10.7041   16.0711 H   0  0  0  0  0  0  0  0  0  0  0  0
   44.5032   17.4259   17.6762 H   0  0  0  0  0  0  0  0  0  0  0  0
   40.1040   15.9744   14.3910 H   0  0  0  0  0  0  0  0  0  0  0  0
   41.1428   17.4008   14.7267 H   0  0  0  0  0  0  0  0  0  0  0  0
   38.9982   17.7904   11.7154 H   0  0  0  0  0  0  0  0  0  0  0  0
   40.0916   11.3779   15.3961 H   0  0  0  0  0  0  0  0  0  0  0  0
  1  2  1  0  0  0  0
  2  3  1  0  0  0  0
  3  4  2  0  0  0  0
  3  5  1  0  0  0  0
  5  6  2  0  0  0  0
  6 25  1  0  0  0  0
  6  7  1  0  0  0  0
  7  8  2  0  0  0  0
  8  9  1  0  0  0  0
  9 10  1  0  0  0  0
 10 11  1  0  0  0  0
 10 25  2  0  0  0  0
 11 23  2  0  0  0  0
 11 12  1  0  0  0  0
 12 13  1  0  0  0  0
 13 14  1  0  0  0  0
 13 17  2  0  0  0  0
 14 15  2  0  0  0  0
 14 16  1  0  0  0  0
 17 18  1  0  0  0  0
 17 23  1  0  0  0  0
 18 19  1  0  0  0  0
 19 20  1  0  0  0  0
 20 21  2  0  0  0  0
 20 22  1  0  0  0  0
 23 24  1  0  0  0  0
  1 26  1  0  0  0  0
  1 27  1  0  0  0  0
  1 28  1  0  0  0  0
  2 29  1  0  0  0  0
  2 30  1  0  0  0  0
  7 31  1  0  0  0  0
  8 32  1  0  0  0  0
  9 33  1  0  0  0  0
  9 34  1  0  0  0  0
 16 35  1  0  0  0  0
 19 36  1  0  0  0  0
 19 37  1  0  0  0  0
 22 38  1  0  0  0  0
 25 39  1  0  0  0  0
M  END
> <i_m_stars>
2

> <r_user_dG.exp>
-7.75184064198728

$$$$
23468
  -OEChem-05162309453D
 Structure written by MMmdl.
 39 40  0     0  0  0  0  0  0999 V2000
   37.3038    6.0207   14.7782 C   0  0  0  0  0  0  0  0  0  0  0  0
   37.5441    7.3857   15.4416 C   0  0  0  0  0  0  0  0  0  0  0  0
   39.0107    7.6228   15.8168 C   0  0  0  0  0  0  0  0  0  0  0  0
   39.7628    6.6642   15.9916 O   0  0  0  0  0  0  0  0  0  0  0  0
   39.3847    8.9129   15.9015 N   0  0  0  0  0  0  0  0  0  0  0  0
   40.6707    9.4518   16.1790 C   0  0  0  0  0  0  0  0  0  0  0  0
   41.6984    8.7040   16.7853 C   0  0  0  0  0  0  0  0  0  0  0  0
   42.9338    9.3143   17.0710 C   0  0  0  0  0  0  0  0  0  0  0  0
   43.1410   10.6700   16.7518 C   0  0  0  0  0  0  0  0  0  0  0  0
   42.1184   11.4322   16.1450 C   0  0  0  0  0  0  0  0  0  0  0  0
   42.3322   12.8383   15.8154 C   0  0  0  0  0  0  0  0  0  0  0  0
   43.1854   13.8565   16.9461 S   0  0  0  0  0  0  0  0  0  0  0  0
   43.0171   15.2585   15.9044 C   0  0  0  0  0  0  0  0  0  0  0  0
   43.6041   16.5277   16.3926 C   0  0  0  0  0  0  0  0  0  0  0  0
   43.5028   17.5484   15.6779 O   0  0  0  0  0  0  0  0  0  0  0  0
   44.1829   16.5486   17.5021 O   0  0  0  0  0  0  0  0  0  0  0  0
   42.3335   14.9436   14.7511 C   0  0  0  0  0  0  0  0  0  0  0  0
   42.0634   15.8257   13.7651 O   0  0  0  0  0  0  0  0  0  0  0  0
   40.9041   16.6162   13.9936 C   0  0  0  0  0  0  0  0  0  0  0  0
   40.4217   17.2724   12.6981 C   0  0  0  0  0  0  0  0  0  0  0  0
   41.2809   17.6281   11.8606 O   0  0  0  0  0  0  0  0  0  0  0  0
   39.1845   17.3898   12.5564 O   0  0  0  0  0  0  0  0  0  0  0  0
   41.9618   13.5670   14.7145 C   0  0  0  0  0  0  0  0  0  0  0  0
   40.9942   12.8290   13.2469 Br  0  0  0  0  0  0  0  0  0  0  0  0
   40.8826   10.8086   15.8614 C   0  0  0  0  0  0  0  0  0  0  0  0
   36.2364    5.9135   14.5348 H   0  0  0  0  0  0  0  0  0  0  0  0
   37.8988    5.9517   13.8556 H   0  0  0  0  0  0  0  0  0  0  0  0
   37.6044    5.2193   15.4692 H   0  0  0  0  0  0  0  0  0  0  0  0
   37.2298    8.1747   14.7425 H   0  0  0  0  0  0  0  0  0  0  0  0
   36.9354    7.4423   16.3561 H   0  0  0  0  0  0  0  0  0  0  0  0
   41.5388    7.6644   17.0305 H   0  0  0  0  0  0  0  0  0  0  0  0
   43.7236    8.7425   17.5354 H   0  0  0  0  0  0  0  0  0  0  0  0
   44.0918   11.1318   16.9733 H   0  0  0  0  0  0  0  0  0  0  0  0
   44.5032   17.4259   17.6762 H   0  0  0  0  0  0  0  0  0  0  0  0
   40.1040   15.9744   14.3910 H   0  0  0  0  0  0  0  0  0  0  0  0
   41.1428   17.4008   14.7267 H   0  0  0  0  0  0  0  0  0  0  0  0
   38.9982   17.7904   11.7154 H   0  0  0  0  0  0  0  0  0  0  0  0
   40.7232   10.9059   14.7774 H   0  0  0  0  0  0  0  0  0  0  0  0
   40.1116   11.3809   16.3982 H   0  0  0  0  0  0  0  0  0  0  0  0
  1  2  1  0  0  0  0
  2  3  1  0  0  0  0
  3  4  2  0  0  0  0
  3  5  1  0  0  0  0
  5  6  2  0  0  0  0
  6 25  1  0  0  0  0
  6  7  1  0  0  0  0
  7  8  2  0  0  0  0
  8  9  1  0  0  0  0
  9 10  2  0  0  0  0
 10 11  1  0  0  0  0
 10 25  1  0  0  0  0
 11 23  2  0  0  0  0
 11 12  1  0  0  0  0
 12 13  1  0  0  0  0
 13 14  1  0  0  0  0
 13 17  2  0  0  0  0
 14 15  2  0  0  0  0
 14 16  1  0  0  0  0
 17 18  1  0  0  0  0
 17 23  1  0  0  0  0
 18 19  1  0  0  0  0
 19 20  1  0  0  0  0
 20 21  2  0  0  0  0
 20 22  1  0  0  0  0
 23 24  1  0  0  0  0
  1 26  1  0  0  0  0
  1 27  1  0  0  0  0
  1 28  1  0  0  0  0
  2 29  1  0  0  0  0
  2 30  1  0  0  0  0
  7 31  1  0  0  0  0
  8 32  1  0  0  0  0
  9 33  1  0  0  0  0
 16 34  1  0  0  0  0
 19 35  1  0  0  0  0
 19 36  1  0  0  0  0
 22 37  1  0  0  0  0
 25 38  1  0  0  0  0
 25 39  1  0  0  0  0
M  END
> <i_m_stars>
2

> <r_user_dG.exp>
-7.75184064198728

$$$$
