20670(2qbs)
  -OEChem-05192314073D
 Structure written by MMmdl.
 47 49  0     0  0  0  0  0  0999 V2000
   41.1639   17.7415   12.1780 O   0  0  0  0  0  0  0  0  0  0  0  0
   40.3722   17.6063   13.1368 C   0  0  0  0  0  0  0  0  0  0  0  0
   39.3254   18.2679   13.3145 O   0  0  0  0  0  0  0  0  0  0  0  0
   40.7175   16.5469   14.1863 C   0  0  0  0  0  0  0  0  0  0  0  0
   41.9134   15.8492   13.8454 O   0  0  0  0  0  0  0  0  0  0  0  0
   42.3248   14.9326   14.7526 C   0  0  0  0  0  0  0  0  0  0  0  0
   41.8775   13.6145   14.7795 C   0  0  0  0  0  0  0  0  0  0  0  0
   40.6644   12.9348   13.4743 Br  0  0  0  0  0  0  0  0  0  0  0  0
   42.3473   12.8247   15.8292 C   0  0  0  0  0  0  0  0  0  0  0  0
   42.0577   11.4350   16.1601 C   0  0  0  0  0  0  0  0  0  0  0  0
   43.0417   10.5800   16.6715 C   0  0  0  0  0  0  0  0  0  0  0  0
   42.7506    9.2417   16.9424 C   0  0  0  0  0  0  0  0  0  0  0  0
   41.4815    8.7321   16.6725 C   0  0  0  0  0  0  0  0  0  0  0  0
   40.4829    9.5699   16.1594 C   0  0  0  0  0  0  0  0  0  0  0  0
   39.1835    9.1385   15.8446 N   0  0  0  0  0  0  0  0  0  0  0  0
   38.9114    7.7621   15.4291 C   0  0  0  0  0  0  0  0  0  0  0  0
   39.6099    7.4194   14.0884 C   0  0  0  0  0  0  0  0  0  0  0  0
   39.2402    6.0199   13.5606 C   0  0  0  0  0  0  0  0  0  0  0  0
   37.7153    5.8364   13.4582 C   0  0  0  0  0  0  0  0  0  0  0  0
   37.0173    6.1412   14.7978 C   0  0  0  0  0  0  0  0  0  0  0  0
   37.3829    7.5402   15.3340 C   0  0  0  0  0  0  0  0  0  0  0  0
   40.7764   10.9164   15.9496 C   0  0  0  0  0  0  0  0  0  0  0  0
   43.4366   13.7822   16.8006 S   0  0  0  0  0  0  0  0  0  0  0  0
   43.2082   15.1991   15.7938 C   0  0  0  0  0  0  0  0  0  0  0  0
   43.9470   16.4235   16.1845 C   0  0  0  0  0  0  0  0  0  0  0  0
   44.6954   16.3793   17.1852 O   0  0  0  0  0  0  0  0  0  0  0  0
   43.8111   17.4654   15.5045 O   0  0  0  0  0  0  0  0  0  0  0  0
   39.2213   18.8930   12.6067 H   0  0  0  0  0  0  0  0  0  0  0  0
   40.8553   17.0392   15.1603 H   0  0  0  0  0  0  0  0  0  0  0  0
   39.8892   15.8262   14.2537 H   0  0  0  0  0  0  0  0  0  0  0  0
   44.0354   10.9595   16.8582 H   0  0  0  0  0  0  0  0  0  0  0  0
   43.5107    8.5995   17.3622 H   0  0  0  0  0  0  0  0  0  0  0  0
   41.2679    7.6900   16.8592 H   0  0  0  0  0  0  0  0  0  0  0  0
   38.6275    9.3017   16.6596 H   0  0  0  0  0  0  0  0  0  0  0  0
   39.3027    7.0765   16.1952 H   0  0  0  0  0  0  0  0  0  0  0  0
   39.3145    8.1671   13.3375 H   0  0  0  0  0  0  0  0  0  0  0  0
   40.6987    7.4614   14.2391 H   0  0  0  0  0  0  0  0  0  0  0  0
   39.6834    5.8863   12.5628 H   0  0  0  0  0  0  0  0  0  0  0  0
   39.6456    5.2614   14.2464 H   0  0  0  0  0  0  0  0  0  0  0  0
   37.3244    6.5181   12.6885 H   0  0  0  0  0  0  0  0  0  0  0  0
   37.4991    4.7967   13.1712 H   0  0  0  0  0  0  0  0  0  0  0  0
   35.9284    6.0906   14.6505 H   0  0  0  0  0  0  0  0  0  0  0  0
   37.3227    5.3864   15.5373 H   0  0  0  0  0  0  0  0  0  0  0  0
   36.9471    7.6576   16.3371 H   0  0  0  0  0  0  0  0  0  0  0  0
   36.9585    8.2979   14.6588 H   0  0  0  0  0  0  0  0  0  0  0  0
   39.9914   11.5782   15.6148 H   0  0  0  0  0  0  0  0  0  0  0  0
   44.3477   18.1571   15.8734 H   0  0  0  0  0  0  0  0  0  0  0  0
  1  2  2  0  0  0  0
  2  3  1  0  0  0  0
  2  4  1  0  0  0  0
  4  5  1  0  0  0  0
  5  6  1  0  0  0  0
  6 24  2  0  0  0  0
  6  7  1  0  0  0  0
  7  8  1  0  0  0  0
  7  9  2  0  0  0  0
  9 10  1  0  0  0  0
  9 23  1  0  0  0  0
 10 22  2  0  0  0  0
 10 11  1  0  0  0  0
 11 12  2  0  0  0  0
 12 13  1  0  0  0  0
 13 14  2  0  0  0  0
 14 15  1  0  0  0  0
 14 22  1  0  0  0  0
 15 16  1  0  0  0  0
 16 21  1  0  0  0  0
 16 17  1  0  0  0  0
 17 18  1  0  0  0  0
 18 19  1  0  0  0  0
 19 20  1  0  0  0  0
 20 21  1  0  0  0  0
 23 24  1  0  0  0  0
 24 25  1  0  0  0  0
 25 26  2  0  0  0  0
 25 27  1  0  0  0  0
  3 28  1  0  0  0  0
  4 29  1  0  0  0  0
  4 30  1  0  0  0  0
 11 31  1  0  0  0  0
 12 32  1  0  0  0  0
 13 33  1  0  0  0  0
 15 34  1  0  0  0  0
 16 35  1  0  0  0  0
 17 36  1  0  0  0  0
 17 37  1  0  0  0  0
 18 38  1  0  0  0  0
 18 39  1  0  0  0  0
 19 40  1  0  0  0  0
 19 41  1  0  0  0  0
 20 42  1  0  0  0  0
 20 43  1  0  0  0  0
 21 44  1  0  0  0  0
 21 45  1  0  0  0  0
 22 46  1  0  0  0  0
 27 47  1  0  0  0  0
M  END
> <i_m_stars>
3

> <r_user_dG.exp>
-9.08323641464599

$$$$
20670(2qbs)
  -OEChem-05192314073D
 Structure written by MMmdl.
 47 49  0     0  0  0  0  0  0999 V2000
   41.1639   17.7415   12.1780 O   0  0  0  0  0  0  0  0  0  0  0  0
   40.3722   17.6063   13.1368 C   0  0  0  0  0  0  0  0  0  0  0  0
   39.3254   18.2679   13.3145 O   0  0  0  0  0  0  0  0  0  0  0  0
   40.7175   16.5469   14.1863 C   0  0  0  0  0  0  0  0  0  0  0  0
   41.9134   15.8492   13.8454 O   0  0  0  0  0  0  0  0  0  0  0  0
   42.3248   14.9326   14.7526 C   0  0  0  0  0  0  0  0  0  0  0  0
   41.8775   13.6145   14.7795 C   0  0  0  0  0  0  0  0  0  0  0  0
   40.6644   12.9348   13.4743 Br  0  0  0  0  0  0  0  0  0  0  0  0
   42.3473   12.8247   15.8292 C   0  0  0  0  0  0  0  0  0  0  0  0
   42.0577   11.4350   16.1601 C   0  0  0  0  0  0  0  0  0  0  0  0
   43.0417   10.5800   16.6715 C   0  0  0  0  0  0  0  0  0  0  0  0
   42.7506    9.2417   16.9424 C   0  0  0  0  0  0  0  0  0  0  0  0
   41.4815    8.7321   16.6725 C   0  0  0  0  0  0  0  0  0  0  0  0
   40.4829    9.5699   16.1594 C   0  0  0  0  0  0  0  0  0  0  0  0
   39.1835    9.1385   15.8446 N   0  0  0  0  0  0  0  0  0  0  0  0
   38.9114    7.7621   15.4291 C   0  0  0  0  0  0  0  0  0  0  0  0
   39.6099    7.4194   14.0884 C   0  0  0  0  0  0  0  0  0  0  0  0
   39.2402    6.0199   13.5606 C   0  0  0  0  0  0  0  0  0  0  0  0
   37.7153    5.8364   13.4582 C   0  0  0  0  0  0  0  0  0  0  0  0
   37.0173    6.1412   14.7978 C   0  0  0  0  0  0  0  0  0  0  0  0
   37.3829    7.5402   15.3340 C   0  0  0  0  0  0  0  0  0  0  0  0
   40.7764   10.9164   15.9496 C   0  0  0  0  0  0  0  0  0  0  0  0
   43.4366   13.7822   16.8006 S   0  0  0  0  0  0  0  0  0  0  0  0
   43.2082   15.1991   15.7938 C   0  0  0  0  0  0  0  0  0  0  0  0
   43.9470   16.4235   16.1845 C   0  0  0  0  0  0  0  0  0  0  0  0
   44.6954   16.3793   17.1852 O   0  0  0  0  0  0  0  0  0  0  0  0
   43.8111   17.4654   15.5045 O   0  0  0  0  0  0  0  0  0  0  0  0
   39.2213   18.8930   12.6067 H   0  0  0  0  0  0  0  0  0  0  0  0
   40.8553   17.0392   15.1603 H   0  0  0  0  0  0  0  0  0  0  0  0
   39.8892   15.8262   14.2537 H   0  0  0  0  0  0  0  0  0  0  0  0
   44.0354   10.9595   16.8582 H   0  0  0  0  0  0  0  0  0  0  0  0
   43.5107    8.5995   17.3622 H   0  0  0  0  0  0  0  0  0  0  0  0
   41.6150    7.9165   15.9466 H   0  0  0  0  0  0  0  0  0  0  0  0
   41.0967    8.3222   17.6180 H   0  0  0  0  0  0  0  0  0  0  0  0
   39.3027    7.0765   16.1952 H   0  0  0  0  0  0  0  0  0  0  0  0
   39.3145    8.1671   13.3375 H   0  0  0  0  0  0  0  0  0  0  0  0
   40.6987    7.4614   14.2391 H   0  0  0  0  0  0  0  0  0  0  0  0
   39.6834    5.8863   12.5628 H   0  0  0  0  0  0  0  0  0  0  0  0
   39.6456    5.2614   14.2464 H   0  0  0  0  0  0  0  0  0  0  0  0
   37.3244    6.5181   12.6885 H   0  0  0  0  0  0  0  0  0  0  0  0
   37.4991    4.7967   13.1712 H   0  0  0  0  0  0  0  0  0  0  0  0
   35.9284    6.0906   14.6505 H   0  0  0  0  0  0  0  0  0  0  0  0
   37.3227    5.3864   15.5373 H   0  0  0  0  0  0  0  0  0  0  0  0
   36.9471    7.6576   16.3371 H   0  0  0  0  0  0  0  0  0  0  0  0
   36.9585    8.2979   14.6588 H   0  0  0  0  0  0  0  0  0  0  0  0
   39.9914   11.5782   15.6148 H   0  0  0  0  0  0  0  0  0  0  0  0
   44.3477   18.1571   15.8734 H   0  0  0  0  0  0  0  0  0  0  0  0
  1  2  2  0  0  0  0
  2  3  1  0  0  0  0
  2  4  1  0  0  0  0
  4  5  1  0  0  0  0
  5  6  1  0  0  0  0
  6 24  2  0  0  0  0
  6  7  1  0  0  0  0
  7  8  1  0  0  0  0
  7  9  2  0  0  0  0
  9 10  1  0  0  0  0
  9 23  1  0  0  0  0
 10 22  2  0  0  0  0
 10 11  1  0  0  0  0
 11 12  2  0  0  0  0
 12 13  1  0  0  0  0
 13 14  1  0  0  0  0
 14 15  2  0  0  0  0
 14 22  1  0  0  0  0
 15 16  1  0  0  0  0
 16 21  1  0  0  0  0
 16 17  1  0  0  0  0
 17 18  1  0  0  0  0
 18 19  1  0  0  0  0
 19 20  1  0  0  0  0
 20 21  1  0  0  0  0
 23 24  1  0  0  0  0
 24 25  1  0  0  0  0
 25 26  2  0  0  0  0
 25 27  1  0  0  0  0
  3 28  1  0  0  0  0
  4 29  1  0  0  0  0
  4 30  1  0  0  0  0
 11 31  1  0  0  0  0
 12 32  1  0  0  0  0
 13 33  1  0  0  0  0
 13 34  1  0  0  0  0
 16 35  1  0  0  0  0
 17 36  1  0  0  0  0
 17 37  1  0  0  0  0
 18 38  1  0  0  0  0
 18 39  1  0  0  0  0
 19 40  1  0  0  0  0
 19 41  1  0  0  0  0
 20 42  1  0  0  0  0
 20 43  1  0  0  0  0
 21 44  1  0  0  0  0
 21 45  1  0  0  0  0
 22 46  1  0  0  0  0
 27 47  1  0  0  0  0
M  END
> <i_m_stars>
3

> <r_user_dG.exp>
-9.08323641464599

$$$$
20670(2qbs)
  -OEChem-05192314073D
 Structure written by MMmdl.
 47 49  0     0  0  0  0  0  0999 V2000
   41.1639   17.7415   12.1780 O   0  0  0  0  0  0  0  0  0  0  0  0
   40.3722   17.6063   13.1368 C   0  0  0  0  0  0  0  0  0  0  0  0
   39.3254   18.2679   13.3145 O   0  0  0  0  0  0  0  0  0  0  0  0
   40.7175   16.5469   14.1863 C   0  0  0  0  0  0  0  0  0  0  0  0
   41.9134   15.8492   13.8454 O   0  0  0  0  0  0  0  0  0  0  0  0
   42.3248   14.9326   14.7526 C   0  0  0  0  0  0  0  0  0  0  0  0
   41.8775   13.6145   14.7795 C   0  0  0  0  0  0  0  0  0  0  0  0
   40.6644   12.9348   13.4743 Br  0  0  0  0  0  0  0  0  0  0  0  0
   42.3473   12.8247   15.8292 C   0  0  0  0  0  0  0  0  0  0  0  0
   42.0577   11.4350   16.1601 C   0  0  0  0  0  0  0  0  0  0  0  0
   43.0417   10.5800   16.6715 C   0  0  0  0  0  0  0  0  0  0  0  0
   42.7506    9.2417   16.9424 C   0  0  0  0  0  0  0  0  0  0  0  0
   41.4815    8.7321   16.6725 C   0  0  0  0  0  0  0  0  0  0  0  0
   40.4829    9.5699   16.1594 C   0  0  0  0  0  0  0  0  0  0  0  0
   39.1835    9.1385   15.8446 N   0  0  0  0  0  0  0  0  0  0  0  0
   38.9114    7.7621   15.4291 C   0  0  0  0  0  0  0  0  0  0  0  0
   39.6099    7.4194   14.0884 C   0  0  0  0  0  0  0  0  0  0  0  0
   39.2402    6.0199   13.5606 C   0  0  0  0  0  0  0  0  0  0  0  0
   37.7153    5.8364   13.4582 C   0  0  0  0  0  0  0  0  0  0  0  0
   37.0173    6.1412   14.7978 C   0  0  0  0  0  0  0  0  0  0  0  0
   37.3829    7.5402   15.3340 C   0  0  0  0  0  0  0  0  0  0  0  0
   40.7764   10.9164   15.9496 C   0  0  0  0  0  0  0  0  0  0  0  0
   43.4366   13.7822   16.8006 S   0  0  0  0  0  0  0  0  0  0  0  0
   43.2082   15.1991   15.7938 C   0  0  0  0  0  0  0  0  0  0  0  0
   43.9470   16.4235   16.1845 C   0  0  0  0  0  0  0  0  0  0  0  0
   44.6954   16.3793   17.1852 O   0  0  0  0  0  0  0  0  0  0  0  0
   43.8111   17.4654   15.5045 O   0  0  0  0  0  0  0  0  0  0  0  0
   39.2213   18.8930   12.6067 H   0  0  0  0  0  0  0  0  0  0  0  0
   40.8553   17.0392   15.1603 H   0  0  0  0  0  0  0  0  0  0  0  0
   39.8892   15.8262   14.2537 H   0  0  0  0  0  0  0  0  0  0  0  0
   43.8678   10.5813   15.9452 H   0  0  0  0  0  0  0  0  0  0  0  0
   43.3843   11.0250   17.6173 H   0  0  0  0  0  0  0  0  0  0  0  0
   43.5107    8.5995   17.3622 H   0  0  0  0  0  0  0  0  0  0  0  0
   41.2679    7.6900   16.8592 H   0  0  0  0  0  0  0  0  0  0  0  0
   39.3027    7.0765   16.1952 H   0  0  0  0  0  0  0  0  0  0  0  0
   39.3145    8.1671   13.3375 H   0  0  0  0  0  0  0  0  0  0  0  0
   40.6987    7.4614   14.2391 H   0  0  0  0  0  0  0  0  0  0  0  0
   39.6834    5.8863   12.5628 H   0  0  0  0  0  0  0  0  0  0  0  0
   39.6456    5.2614   14.2464 H   0  0  0  0  0  0  0  0  0  0  0  0
   37.3244    6.5181   12.6885 H   0  0  0  0  0  0  0  0  0  0  0  0
   37.4991    4.7967   13.1712 H   0  0  0  0  0  0  0  0  0  0  0  0
   35.9284    6.0906   14.6505 H   0  0  0  0  0  0  0  0  0  0  0  0
   37.3227    5.3864   15.5373 H   0  0  0  0  0  0  0  0  0  0  0  0
   36.9471    7.6576   16.3371 H   0  0  0  0  0  0  0  0  0  0  0  0
   36.9585    8.2979   14.6588 H   0  0  0  0  0  0  0  0  0  0  0  0
   39.9914   11.5782   15.6148 H   0  0  0  0  0  0  0  0  0  0  0  0
   44.3477   18.1571   15.8734 H   0  0  0  0  0  0  0  0  0  0  0  0
  1  2  2  0  0  0  0
  2  3  1  0  0  0  0
  2  4  1  0  0  0  0
  4  5  1  0  0  0  0
  5  6  1  0  0  0  0
  6 24  2  0  0  0  0
  6  7  1  0  0  0  0
  7  8  1  0  0  0  0
  7  9  2  0  0  0  0
  9 10  1  0  0  0  0
  9 23  1  0  0  0  0
 10 22  2  0  0  0  0
 10 11  1  0  0  0  0
 11 12  1  0  0  0  0
 12 13  2  0  0  0  0
 13 14  1  0  0  0  0
 14 15  2  0  0  0  0
 14 22  1  0  0  0  0
 15 16  1  0  0  0  0
 16 21  1  0  0  0  0
 16 17  1  0  0  0  0
 17 18  1  0  0  0  0
 18 19  1  0  0  0  0
 19 20  1  0  0  0  0
 20 21  1  0  0  0  0
 23 24  1  0  0  0  0
 24 25  1  0  0  0  0
 25 26  2  0  0  0  0
 25 27  1  0  0  0  0
  3 28  1  0  0  0  0
  4 29  1  0  0  0  0
  4 30  1  0  0  0  0
 11 31  1  0  0  0  0
 11 32  1  0  0  0  0
 12 33  1  0  0  0  0
 13 34  1  0  0  0  0
 16 35  1  0  0  0  0
 17 36  1  0  0  0  0
 17 37  1  0  0  0  0
 18 38  1  0  0  0  0
 18 39  1  0  0  0  0
 19 40  1  0  0  0  0
 19 41  1  0  0  0  0
 20 42  1  0  0  0  0
 20 43  1  0  0  0  0
 21 44  1  0  0  0  0
 21 45  1  0  0  0  0
 22 46  1  0  0  0  0
 27 47  1  0  0  0  0
M  END
> <i_m_stars>
3

> <r_user_dG.exp>
-9.08323641464599

$$$$
20670(2qbs)
  -OEChem-05192314073D
 Structure written by MMmdl.
 47 49  0     0  0  0  0  0  0999 V2000
   41.1639   17.7415   12.1780 O   0  0  0  0  0  0  0  0  0  0  0  0
   40.3722   17.6063   13.1368 C   0  0  0  0  0  0  0  0  0  0  0  0
   39.3254   18.2679   13.3145 O   0  0  0  0  0  0  0  0  0  0  0  0
   40.7175   16.5469   14.1863 C   0  0  0  0  0  0  0  0  0  0  0  0
   41.9134   15.8492   13.8454 O   0  0  0  0  0  0  0  0  0  0  0  0
   42.3248   14.9326   14.7526 C   0  0  0  0  0  0  0  0  0  0  0  0
   41.8775   13.6145   14.7795 C   0  0  0  0  0  0  0  0  0  0  0  0
   40.6644   12.9348   13.4743 Br  0  0  0  0  0  0  0  0  0  0  0  0
   42.3473   12.8247   15.8292 C   0  0  0  0  0  0  0  0  0  0  0  0
   42.0577   11.4350   16.1601 C   0  0  0  0  0  0  0  0  0  0  0  0
   43.0417   10.5800   16.6715 C   0  0  0  0  0  0  0  0  0  0  0  0
   42.7506    9.2417   16.9424 C   0  0  0  0  0  0  0  0  0  0  0  0
   41.4815    8.7321   16.6725 C   0  0  0  0  0  0  0  0  0  0  0  0
   40.4829    9.5699   16.1594 C   0  0  0  0  0  0  0  0  0  0  0  0
   39.1835    9.1385   15.8446 N   0  0  0  0  0  0  0  0  0  0  0  0
   38.9114    7.7621   15.4291 C   0  0  0  0  0  0  0  0  0  0  0  0
   39.6099    7.4194   14.0884 C   0  0  0  0  0  0  0  0  0  0  0  0
   39.2402    6.0199   13.5606 C   0  0  0  0  0  0  0  0  0  0  0  0
   37.7153    5.8364   13.4582 C   0  0  0  0  0  0  0  0  0  0  0  0
   37.0173    6.1412   14.7978 C   0  0  0  0  0  0  0  0  0  0  0  0
   37.3829    7.5402   15.3340 C   0  0  0  0  0  0  0  0  0  0  0  0
   40.7764   10.9164   15.9496 C   0  0  0  0  0  0  0  0  0  0  0  0
   43.4366   13.7822   16.8006 S   0  0  0  0  0  0  0  0  0  0  0  0
   43.2082   15.1991   15.7938 C   0  0  0  0  0  0  0  0  0  0  0  0
   43.9470   16.4235   16.1845 C   0  0  0  0  0  0  0  0  0  0  0  0
   44.6954   16.3793   17.1852 O   0  0  0  0  0  0  0  0  0  0  0  0
   43.8111   17.4654   15.5045 O   0  0  0  0  0  0  0  0  0  0  0  0
   39.2213   18.8930   12.6067 H   0  0  0  0  0  0  0  0  0  0  0  0
   40.8553   17.0392   15.1603 H   0  0  0  0  0  0  0  0  0  0  0  0
   39.8892   15.8262   14.2537 H   0  0  0  0  0  0  0  0  0  0  0  0
   44.0354   10.9595   16.8582 H   0  0  0  0  0  0  0  0  0  0  0  0
   43.5107    8.5995   17.3622 H   0  0  0  0  0  0  0  0  0  0  0  0
   41.2679    7.6900   16.8592 H   0  0  0  0  0  0  0  0  0  0  0  0
   39.3027    7.0765   16.1952 H   0  0  0  0  0  0  0  0  0  0  0  0
   39.3145    8.1671   13.3375 H   0  0  0  0  0  0  0  0  0  0  0  0
   40.6987    7.4614   14.2391 H   0  0  0  0  0  0  0  0  0  0  0  0
   39.6834    5.8863   12.5628 H   0  0  0  0  0  0  0  0  0  0  0  0
   39.6456    5.2614   14.2464 H   0  0  0  0  0  0  0  0  0  0  0  0
   37.3244    6.5181   12.6885 H   0  0  0  0  0  0  0  0  0  0  0  0
   37.4991    4.7967   13.1712 H   0  0  0  0  0  0  0  0  0  0  0  0
   35.9284    6.0906   14.6505 H   0  0  0  0  0  0  0  0  0  0  0  0
   37.3227    5.3864   15.5373 H   0  0  0  0  0  0  0  0  0  0  0  0
   36.9471    7.6576   16.3371 H   0  0  0  0  0  0  0  0  0  0  0  0
   36.9585    8.2979   14.6588 H   0  0  0  0  0  0  0  0  0  0  0  0
   40.1018   11.4850   16.6066 H   0  0  0  0  0  0  0  0  0  0  0  0
   40.5277   11.1261   14.8988 H   0  0  0  0  0  0  0  0  0  0  0  0
   44.3477   18.1571   15.8734 H   0  0  0  0  0  0  0  0  0  0  0  0
  1  2  2  0  0  0  0
  2  3  1  0  0  0  0
  2  4  1  0  0  0  0
  4  5  1  0  0  0  0
  5  6  1  0  0  0  0
  6 24  2  0  0  0  0
  6  7  1  0  0  0  0
  7  8  1  0  0  0  0
  7  9  2  0  0  0  0
  9 10  1  0  0  0  0
  9 23  1  0  0  0  0
 10 22  1  0  0  0  0
 10 11  2  0  0  0  0
 11 12  1  0  0  0  0
 12 13  2  0  0  0  0
 13 14  1  0  0  0  0
 14 15  2  0  0  0  0
 14 22  1  0  0  0  0
 15 16  1  0  0  0  0
 16 21  1  0  0  0  0
 16 17  1  0  0  0  0
 17 18  1  0  0  0  0
 18 19  1  0  0  0  0
 19 20  1  0  0  0  0
 20 21  1  0  0  0  0
 23 24  1  0  0  0  0
 24 25  1  0  0  0  0
 25 26  2  0  0  0  0
 25 27  1  0  0  0  0
  3 28  1  0  0  0  0
  4 29  1  0  0  0  0
  4 30  1  0  0  0  0
 11 31  1  0  0  0  0
 12 32  1  0  0  0  0
 13 33  1  0  0  0  0
 16 34  1  0  0  0  0
 17 35  1  0  0  0  0
 17 36  1  0  0  0  0
 18 37  1  0  0  0  0
 18 38  1  0  0  0  0
 19 39  1  0  0  0  0
 19 40  1  0  0  0  0
 20 41  1  0  0  0  0
 20 42  1  0  0  0  0
 21 43  1  0  0  0  0
 21 44  1  0  0  0  0
 22 45  1  0  0  0  0
 22 46  1  0  0  0  0
 27 47  1  0  0  0  0
M  END
> <i_m_stars>
3

> <r_user_dG.exp>
-9.08323641464599

$$$$
