p38a_3fmh
  -OEChem-05162309453D
 Structure written by MMmdl.
 46 49  0     1  0  0  0  0  0999 V2000
   38.1822   37.2781   14.6780 F   0  0  0  0  0  0  0  0  0  0  0  0
   37.6121   36.6927   15.7561 C   0  0  0  0  0  0  0  0  0  0  0  0
   36.3306   36.1234   15.6494 C   0  0  0  0  0  0  0  0  0  0  0  0
   35.7306   35.5282   16.7729 C   0  0  0  0  0  0  0  0  0  0  0  0
   38.2935   36.6633   16.9880 C   0  0  0  0  0  0  0  0  0  0  0  0
   37.6845   36.0889   18.1187 C   0  0  0  0  0  0  0  0  0  0  0  0
   38.3244   36.1063   19.3118 F   0  0  0  0  0  0  0  0  0  0  0  0
   36.3984   35.5157   18.0135 C   0  0  0  0  0  0  0  0  0  0  0  0
   35.8110   34.8859   19.0798 O   0  0  0  0  0  0  0  0  0  0  0  0
   35.2195   35.5980   20.0991 C   0  0  0  0  0  0  0  0  0  0  0  0
   34.4802   34.7957   21.0797 C   0  0  0  0  0  0  0  0  0  0  0  0
   34.3267   33.5841   20.9220 O   0  0  0  0  0  0  0  0  0  0  0  0
   33.9629   35.4463   22.1618 N   0  0  0  0  0  0  0  0  0  0  0  0
   33.2518   34.6745   23.1957 C   0  0  0  0  0  0  0  0  0  0  0  0
   34.0492   36.8642   22.3395 C   0  0  0  0  0  0  0  0  0  0  0  0
   33.5187   37.4796   23.4172 N   0  0  0  0  0  0  0  0  0  0  0  0
   35.3129   36.9423   20.2265 C   0  0  0  0  0  0  0  0  0  0  0  0
   34.7216   37.6302   21.3651 C   0  0  0  0  0  0  0  0  0  0  0  0
   34.8051   39.0231   21.5733 C   0  0  0  0  0  0  0  0  0  0  0  0
   34.2844   39.6080   22.6737 N   0  0  0  0  0  0  0  0  0  0  0  0
   33.6693   38.7965   23.5368 C   0  0  0  0  0  0  0  0  0  0  0  0
   33.1669   39.3731   24.6802 N   0  0  0  0  0  0  0  0  0  0  0  0
   32.3829   38.7485   25.7392 C   0  0  2  0  0  0  0  0  0  0  0  0
   31.2835   39.7010   26.2143 C   0  0  0  0  0  0  0  0  0  0  0  0
   33.2806   38.2181   26.8795 C   0  0  0  0  0  0  0  0  0  0  0  0
   34.1195   39.2305   27.5029 N   0  0  0  0  0  0  0  0  0  0  0  0
   35.4196   39.3870   27.1864 N   0  0  0  0  0  0  0  0  0  0  0  0
   35.7283   40.3837   28.0005 C   0  0  0  0  0  0  0  0  0  0  0  0
   34.6917   40.8108   28.7755 N   0  0  0  0  0  0  0  0  0  0  0  0
   33.6769   40.0724   28.4600 N   0  0  0  0  0  0  0  0  0  0  0  0
   35.8076   36.1434   14.7047 H   0  0  0  0  0  0  0  0  0  0  0  0
   34.7528   35.0782   16.6846 H   0  0  0  0  0  0  0  0  0  0  0  0
   39.2858   37.0826   17.0650 H   0  0  0  0  0  0  0  0  0  0  0  0
   32.9048   35.3544   23.9878 H   0  0  0  0  0  0  0  0  0  0  0  0
   32.3870   34.1664   22.7439 H   0  0  0  0  0  0  0  0  0  0  0  0
   33.9325   33.9259   23.6274 H   0  0  0  0  0  0  0  0  0  0  0  0
   35.8339   37.5131   19.4721 H   0  0  0  0  0  0  0  0  0  0  0  0
   35.2979   39.6372   20.8340 H   0  0  0  0  0  0  0  0  0  0  0  0
   33.9688   39.7456   25.1473 H   0  0  0  0  0  0  0  0  0  0  0  0
   31.8773   37.8731   25.3056 H   0  0  0  0  0  0  0  0  0  0  0  0
   30.6996   39.2190   27.0123 H   0  0  0  0  0  0  0  0  0  0  0  0
   31.7401   40.6241   26.6007 H   0  0  0  0  0  0  0  0  0  0  0  0
   30.6204   39.9450   25.3712 H   0  0  0  0  0  0  0  0  0  0  0  0
   32.6320   37.7835   27.6544 H   0  0  0  0  0  0  0  0  0  0  0  0
   33.9344   37.4354   26.4672 H   0  0  0  0  0  0  0  0  0  0  0  0
   36.7150   40.8203   28.0467 H   0  0  0  0  0  0  0  0  0  0  0  0
  1  2  1  0  0  0  0
  2  3  2  0  0  0  0
  2  5  1  0  0  0  0
  3  4  1  0  0  0  0
  4  8  2  0  0  0  0
  5  6  2  0  0  0  0
  6  7  1  0  0  0  0
  6  8  1  0  0  0  0
  8  9  1  0  0  0  0
  9 10  1  0  0  0  0
 10 11  1  0  0  0  0
 10 17  2  0  0  0  0
 11 12  2  0  0  0  0
 11 13  1  0  0  0  0
 13 14  1  0  0  0  0
 13 15  1  0  0  0  0
 15 16  2  0  0  0  0
 15 18  1  0  0  0  0
 16 21  1  0  0  0  0
 17 18  1  0  0  0  0
 18 19  2  0  0  0  0
 19 20  1  0  0  0  0
 20 21  2  0  0  0  0
 21 22  1  0  0  0  0
 22 23  1  0  0  0  0
 23 24  1  0  0  0  0
 23 25  1  0  0  0  0
 25 26  1  0  0  0  0
 26 27  1  0  0  0  0
 26 30  1  0  0  0  0
 27 28  2  0  0  0  0
 28 29  1  0  0  0  0
 29 30  2  0  0  0  0
  3 31  1  0  0  0  0
  4 32  1  0  0  0  0
  5 33  1  0  0  0  0
 14 34  1  0  0  0  0
 14 35  1  0  0  0  0
 14 36  1  0  0  0  0
 17 37  1  0  0  0  0
 19 38  1  0  0  0  0
 22 39  1  0  0  0  0
 23 40  1  0  0  0  0
 24 41  1  0  0  0  0
 24 42  1  0  0  0  0
 24 43  1  0  0  0  0
 25 44  1  0  0  0  0
 25 45  1  0  0  0  0
 28 46  1  0  0  0  0
M  END
> <r_user_dG.exp>
-10.8254

$$$$
p38a_3fmh
  -OEChem-05162309453D
 Structure written by MMmdl.
 46 49  0     1  0  0  0  0  0999 V2000
   38.1822   37.2781   14.6780 F   0  0  0  0  0  0  0  0  0  0  0  0
   37.6121   36.6927   15.7561 C   0  0  0  0  0  0  0  0  0  0  0  0
   36.3306   36.1234   15.6494 C   0  0  0  0  0  0  0  0  0  0  0  0
   35.7306   35.5282   16.7729 C   0  0  0  0  0  0  0  0  0  0  0  0
   38.2935   36.6633   16.9880 C   0  0  0  0  0  0  0  0  0  0  0  0
   37.6845   36.0889   18.1187 C   0  0  0  0  0  0  0  0  0  0  0  0
   38.3244   36.1063   19.3118 F   0  0  0  0  0  0  0  0  0  0  0  0
   36.3984   35.5157   18.0135 C   0  0  0  0  0  0  0  0  0  0  0  0
   35.8110   34.8859   19.0798 O   0  0  0  0  0  0  0  0  0  0  0  0
   35.2195   35.5980   20.0991 C   0  0  0  0  0  0  0  0  0  0  0  0
   34.4802   34.7957   21.0797 C   0  0  0  0  0  0  0  0  0  0  0  0
   34.3267   33.5841   20.9220 O   0  0  0  0  0  0  0  0  0  0  0  0
   33.9629   35.4463   22.1618 N   0  0  0  0  0  0  0  0  0  0  0  0
   33.2518   34.6745   23.1957 C   0  0  0  0  0  0  0  0  0  0  0  0
   34.0492   36.8642   22.3395 C   0  0  0  0  0  0  0  0  0  0  0  0
   33.5187   37.4796   23.4172 N   0  0  0  0  0  0  0  0  0  0  0  0
   35.3129   36.9423   20.2265 C   0  0  0  0  0  0  0  0  0  0  0  0
   34.7216   37.6302   21.3651 C   0  0  0  0  0  0  0  0  0  0  0  0
   34.8051   39.0231   21.5733 C   0  0  0  0  0  0  0  0  0  0  0  0
   34.2844   39.6080   22.6737 N   0  0  0  0  0  0  0  0  0  0  0  0
   33.6693   38.7965   23.5368 C   0  0  0  0  0  0  0  0  0  0  0  0
   33.1669   39.3731   24.6802 N   0  0  0  0  0  0  0  0  0  0  0  0
   32.3829   38.7485   25.7392 C   0  0  2  0  0  0  0  0  0  0  0  0
   31.2835   39.7010   26.2143 C   0  0  0  0  0  0  0  0  0  0  0  0
   33.2806   38.2181   26.8795 C   0  0  0  0  0  0  0  0  0  0  0  0
   34.1195   39.2305   27.5029 N   0  0  0  0  0  0  0  0  0  0  0  0
   35.4196   39.3870   27.1864 N   0  0  0  0  0  0  0  0  0  0  0  0
   35.7283   40.3837   28.0005 C   0  0  0  0  0  0  0  0  0  0  0  0
   34.6917   40.8108   28.7755 N   0  0  0  0  0  0  0  0  0  0  0  0
   33.6769   40.0724   28.4600 N   0  0  0  0  0  0  0  0  0  0  0  0
   35.8076   36.1434   14.7047 H   0  0  0  0  0  0  0  0  0  0  0  0
   34.7528   35.0782   16.6846 H   0  0  0  0  0  0  0  0  0  0  0  0
   39.2858   37.0826   17.0650 H   0  0  0  0  0  0  0  0  0  0  0  0
   32.9048   35.3544   23.9878 H   0  0  0  0  0  0  0  0  0  0  0  0
   32.3870   34.1664   22.7439 H   0  0  0  0  0  0  0  0  0  0  0  0
   33.9325   33.9259   23.6274 H   0  0  0  0  0  0  0  0  0  0  0  0
   33.0230   36.9572   24.1110 H   0  0  0  0  0  0  0  0  0  0  0  0
   35.8339   37.5131   19.4721 H   0  0  0  0  0  0  0  0  0  0  0  0
   35.2979   39.6372   20.8340 H   0  0  0  0  0  0  0  0  0  0  0  0
   31.8773   37.8731   25.3056 H   0  0  0  0  0  0  0  0  0  0  0  0
   30.6996   39.2190   27.0123 H   0  0  0  0  0  0  0  0  0  0  0  0
   31.7401   40.6241   26.6007 H   0  0  0  0  0  0  0  0  0  0  0  0
   30.6204   39.9450   25.3712 H   0  0  0  0  0  0  0  0  0  0  0  0
   32.6320   37.7835   27.6544 H   0  0  0  0  0  0  0  0  0  0  0  0
   33.9344   37.4354   26.4672 H   0  0  0  0  0  0  0  0  0  0  0  0
   36.7150   40.8203   28.0467 H   0  0  0  0  0  0  0  0  0  0  0  0
  1  2  1  0  0  0  0
  2  3  2  0  0  0  0
  2  5  1  0  0  0  0
  3  4  1  0  0  0  0
  4  8  2  0  0  0  0
  5  6  2  0  0  0  0
  6  7  1  0  0  0  0
  6  8  1  0  0  0  0
  8  9  1  0  0  0  0
  9 10  1  0  0  0  0
 10 11  1  0  0  0  0
 10 17  2  0  0  0  0
 11 12  2  0  0  0  0
 11 13  1  0  0  0  0
 13 14  1  0  0  0  0
 13 15  1  0  0  0  0
 15 16  1  0  0  0  0
 15 18  2  0  0  0  0
 16 21  1  0  0  0  0
 17 18  1  0  0  0  0
 18 19  1  0  0  0  0
 19 20  2  0  0  0  0
 20 21  1  0  0  0  0
 21 22  2  0  0  0  0
 22 23  1  0  0  0  0
 23 24  1  0  0  0  0
 23 25  1  0  0  0  0
 25 26  1  0  0  0  0
 26 27  1  0  0  0  0
 26 30  1  0  0  0  0
 27 28  2  0  0  0  0
 28 29  1  0  0  0  0
 29 30  2  0  0  0  0
  3 31  1  0  0  0  0
  4 32  1  0  0  0  0
  5 33  1  0  0  0  0
 14 34  1  0  0  0  0
 14 35  1  0  0  0  0
 14 36  1  0  0  0  0
 16 37  1  0  0  0  0
 17 38  1  0  0  0  0
 19 39  1  0  0  0  0
 23 40  1  0  0  0  0
 24 41  1  0  0  0  0
 24 42  1  0  0  0  0
 24 43  1  0  0  0  0
 25 44  1  0  0  0  0
 25 45  1  0  0  0  0
 28 46  1  0  0  0  0
M  END
> <r_user_dG.exp>
-10.8254

$$$$
p38a_3fmh
  -OEChem-05162309453D
 Structure written by MMmdl.
 46 49  0     1  0  0  0  0  0999 V2000
   38.1822   37.2781   14.6780 F   0  0  0  0  0  0  0  0  0  0  0  0
   37.6121   36.6927   15.7561 C   0  0  0  0  0  0  0  0  0  0  0  0
   36.3306   36.1234   15.6494 C   0  0  0  0  0  0  0  0  0  0  0  0
   35.7306   35.5282   16.7729 C   0  0  0  0  0  0  0  0  0  0  0  0
   38.2935   36.6633   16.9880 C   0  0  0  0  0  0  0  0  0  0  0  0
   37.6845   36.0889   18.1187 C   0  0  0  0  0  0  0  0  0  0  0  0
   38.3244   36.1063   19.3118 F   0  0  0  0  0  0  0  0  0  0  0  0
   36.3984   35.5157   18.0135 C   0  0  0  0  0  0  0  0  0  0  0  0
   35.8110   34.8859   19.0798 O   0  0  0  0  0  0  0  0  0  0  0  0
   35.2195   35.5980   20.0991 C   0  0  0  0  0  0  0  0  0  0  0  0
   34.4802   34.7957   21.0797 C   0  0  0  0  0  0  0  0  0  0  0  0
   34.3267   33.5841   20.9220 O   0  0  0  0  0  0  0  0  0  0  0  0
   33.9629   35.4463   22.1618 N   0  0  0  0  0  0  0  0  0  0  0  0
   33.2518   34.6745   23.1957 C   0  0  0  0  0  0  0  0  0  0  0  0
   34.0492   36.8642   22.3395 C   0  0  0  0  0  0  0  0  0  0  0  0
   33.5187   37.4796   23.4172 N   0  0  0  0  0  0  0  0  0  0  0  0
   35.3129   36.9423   20.2265 C   0  0  0  0  0  0  0  0  0  0  0  0
   34.7216   37.6302   21.3651 C   0  0  0  0  0  0  0  0  0  0  0  0
   34.8051   39.0231   21.5733 C   0  0  0  0  0  0  0  0  0  0  0  0
   34.2844   39.6080   22.6737 N   0  0  0  0  0  0  0  0  0  0  0  0
   33.6693   38.7965   23.5368 C   0  0  0  0  0  0  0  0  0  0  0  0
   33.1669   39.3731   24.6802 N   0  0  0  0  0  0  0  0  0  0  0  0
   32.3829   38.7485   25.7392 C   0  0  2  0  0  0  0  0  0  0  0  0
   31.2835   39.7010   26.2143 C   0  0  0  0  0  0  0  0  0  0  0  0
   33.2806   38.2181   26.8795 C   0  0  0  0  0  0  0  0  0  0  0  0
   34.1195   39.2305   27.5029 N   0  0  0  0  0  0  0  0  0  0  0  0
   35.4196   39.3870   27.1864 N   0  0  0  0  0  0  0  0  0  0  0  0
   35.7283   40.3837   28.0005 C   0  0  0  0  0  0  0  0  0  0  0  0
   34.6917   40.8108   28.7755 N   0  0  0  0  0  0  0  0  0  0  0  0
   33.6769   40.0724   28.4600 N   0  0  0  0  0  0  0  0  0  0  0  0
   35.8076   36.1434   14.7047 H   0  0  0  0  0  0  0  0  0  0  0  0
   34.7528   35.0782   16.6846 H   0  0  0  0  0  0  0  0  0  0  0  0
   39.2858   37.0826   17.0650 H   0  0  0  0  0  0  0  0  0  0  0  0
   32.9048   35.3544   23.9878 H   0  0  0  0  0  0  0  0  0  0  0  0
   32.3870   34.1664   22.7439 H   0  0  0  0  0  0  0  0  0  0  0  0
   33.9325   33.9259   23.6274 H   0  0  0  0  0  0  0  0  0  0  0  0
   35.8339   37.5131   19.4721 H   0  0  0  0  0  0  0  0  0  0  0  0
   35.2979   39.6372   20.8340 H   0  0  0  0  0  0  0  0  0  0  0  0
   34.3556   40.5927   22.8328 H   0  0  0  0  0  0  0  0  0  0  0  0
   31.8773   37.8731   25.3056 H   0  0  0  0  0  0  0  0  0  0  0  0
   30.6996   39.2190   27.0123 H   0  0  0  0  0  0  0  0  0  0  0  0
   31.7401   40.6241   26.6007 H   0  0  0  0  0  0  0  0  0  0  0  0
   30.6204   39.9450   25.3712 H   0  0  0  0  0  0  0  0  0  0  0  0
   32.6320   37.7835   27.6544 H   0  0  0  0  0  0  0  0  0  0  0  0
   33.9344   37.4354   26.4672 H   0  0  0  0  0  0  0  0  0  0  0  0
   36.7150   40.8203   28.0467 H   0  0  0  0  0  0  0  0  0  0  0  0
  1  2  1  0  0  0  0
  2  3  2  0  0  0  0
  2  5  1  0  0  0  0
  3  4  1  0  0  0  0
  4  8  2  0  0  0  0
  5  6  2  0  0  0  0
  6  7  1  0  0  0  0
  6  8  1  0  0  0  0
  8  9  1  0  0  0  0
  9 10  1  0  0  0  0
 10 11  1  0  0  0  0
 10 17  2  0  0  0  0
 11 12  2  0  0  0  0
 11 13  1  0  0  0  0
 13 14  1  0  0  0  0
 13 15  1  0  0  0  0
 15 16  2  0  0  0  0
 15 18  1  0  0  0  0
 16 21  1  0  0  0  0
 17 18  1  0  0  0  0
 18 19  2  0  0  0  0
 19 20  1  0  0  0  0
 20 21  1  0  0  0  0
 21 22  2  0  0  0  0
 22 23  1  0  0  0  0
 23 24  1  0  0  0  0
 23 25  1  0  0  0  0
 25 26  1  0  0  0  0
 26 27  1  0  0  0  0
 26 30  1  0  0  0  0
 27 28  2  0  0  0  0
 28 29  1  0  0  0  0
 29 30  2  0  0  0  0
  3 31  1  0  0  0  0
  4 32  1  0  0  0  0
  5 33  1  0  0  0  0
 14 34  1  0  0  0  0
 14 35  1  0  0  0  0
 14 36  1  0  0  0  0
 17 37  1  0  0  0  0
 19 38  1  0  0  0  0
 20 39  1  0  0  0  0
 23 40  1  0  0  0  0
 24 41  1  0  0  0  0
 24 42  1  0  0  0  0
 24 43  1  0  0  0  0
 25 44  1  0  0  0  0
 25 45  1  0  0  0  0
 28 46  1  0  0  0  0
M  END
> <r_user_dG.exp>
-10.8254

$$$$
p38a_3fmh
  -OEChem-05162309453D
 Structure written by MMmdl.
 46 49  0     1  0  0  0  0  0999 V2000
   38.1822   37.2781   14.6780 F   0  0  0  0  0  0  0  0  0  0  0  0
   37.6121   36.6927   15.7561 C   0  0  0  0  0  0  0  0  0  0  0  0
   36.3306   36.1234   15.6494 C   0  0  0  0  0  0  0  0  0  0  0  0
   35.7306   35.5282   16.7729 C   0  0  0  0  0  0  0  0  0  0  0  0
   38.2935   36.6633   16.9880 C   0  0  0  0  0  0  0  0  0  0  0  0
   37.6845   36.0889   18.1187 C   0  0  0  0  0  0  0  0  0  0  0  0
   38.3244   36.1063   19.3118 F   0  0  0  0  0  0  0  0  0  0  0  0
   36.3984   35.5157   18.0135 C   0  0  0  0  0  0  0  0  0  0  0  0
   35.8110   34.8859   19.0798 O   0  0  0  0  0  0  0  0  0  0  0  0
   35.2195   35.5980   20.0991 C   0  0  0  0  0  0  0  0  0  0  0  0
   34.4802   34.7957   21.0797 C   0  0  0  0  0  0  0  0  0  0  0  0
   34.3267   33.5841   20.9220 O   0  0  0  0  0  0  0  0  0  0  0  0
   33.9629   35.4463   22.1618 N   0  0  0  0  0  0  0  0  0  0  0  0
   33.2518   34.6745   23.1957 C   0  0  0  0  0  0  0  0  0  0  0  0
   34.0492   36.8642   22.3395 C   0  0  0  0  0  0  0  0  0  0  0  0
   33.5187   37.4796   23.4172 N   0  0  0  0  0  0  0  0  0  0  0  0
   35.3129   36.9423   20.2265 C   0  0  0  0  0  0  0  0  0  0  0  0
   34.7216   37.6302   21.3651 C   0  0  0  0  0  0  0  0  0  0  0  0
   34.8051   39.0231   21.5733 C   0  0  0  0  0  0  0  0  0  0  0  0
   34.2844   39.6080   22.6737 N   0  0  0  0  0  0  0  0  0  0  0  0
   33.6693   38.7965   23.5368 C   0  0  0  0  0  0  0  0  0  0  0  0
   33.1669   39.3731   24.6802 N   0  0  0  0  0  0  0  0  0  0  0  0
   32.3829   38.7485   25.7392 C   0  0  2  0  0  0  0  0  0  0  0  0
   31.2835   39.7010   26.2143 C   0  0  0  0  0  0  0  0  0  0  0  0
   33.2806   38.2181   26.8795 C   0  0  0  0  0  0  0  0  0  0  0  0
   34.1195   39.2305   27.5029 N   0  0  0  0  0  0  0  0  0  0  0  0
   35.4196   39.3870   27.1864 N   0  0  0  0  0  0  0  0  0  0  0  0
   35.7283   40.3837   28.0005 C   0  0  0  0  0  0  0  0  0  0  0  0
   34.6917   40.8108   28.7755 N   0  0  0  0  0  0  0  0  0  0  0  0
   33.6769   40.0724   28.4600 N   0  0  0  0  0  0  0  0  0  0  0  0
   35.8076   36.1434   14.7047 H   0  0  0  0  0  0  0  0  0  0  0  0
   34.7528   35.0782   16.6846 H   0  0  0  0  0  0  0  0  0  0  0  0
   39.2858   37.0826   17.0650 H   0  0  0  0  0  0  0  0  0  0  0  0
   33.8277   33.2304   21.6489 H   0  0  0  0  0  0  0  0  0  0  0  0
   32.9048   35.3544   23.9878 H   0  0  0  0  0  0  0  0  0  0  0  0
   32.3870   34.1664   22.7439 H   0  0  0  0  0  0  0  0  0  0  0  0
   33.9325   33.9259   23.6274 H   0  0  0  0  0  0  0  0  0  0  0  0
   35.8339   37.5131   19.4721 H   0  0  0  0  0  0  0  0  0  0  0  0
   35.2979   39.6372   20.8340 H   0  0  0  0  0  0  0  0  0  0  0  0
   31.8773   37.8731   25.3056 H   0  0  0  0  0  0  0  0  0  0  0  0
   30.6996   39.2190   27.0123 H   0  0  0  0  0  0  0  0  0  0  0  0
   31.7401   40.6241   26.6007 H   0  0  0  0  0  0  0  0  0  0  0  0
   30.6204   39.9450   25.3712 H   0  0  0  0  0  0  0  0  0  0  0  0
   32.6320   37.7835   27.6544 H   0  0  0  0  0  0  0  0  0  0  0  0
   33.9344   37.4354   26.4672 H   0  0  0  0  0  0  0  0  0  0  0  0
   36.7150   40.8203   28.0467 H   0  0  0  0  0  0  0  0  0  0  0  0
  1  2  1  0  0  0  0
  2  3  2  0  0  0  0
  2  5  1  0  0  0  0
  3  4  1  0  0  0  0
  4  8  2  0  0  0  0
  5  6  2  0  0  0  0
  6  7  1  0  0  0  0
  6  8  1  0  0  0  0
  8  9  1  0  0  0  0
  9 10  1  0  0  0  0
 10 11  2  0  0  0  0
 10 17  1  0  0  0  0
 11 12  1  0  0  0  0
 11 13  1  0  0  0  0
 13 14  1  0  0  0  0
 13 15  1  0  0  0  0
 15 16  2  0  0  0  0
 15 18  1  0  0  0  0
 16 21  1  0  0  0  0
 17 18  2  0  0  0  0
 18 19  1  0  0  0  0
 19 20  2  0  0  0  0
 20 21  1  0  0  0  0
 21 22  2  0  0  0  0
 22 23  1  0  0  0  0
 23 24  1  0  0  0  0
 23 25  1  0  0  0  0
 25 26  1  0  0  0  0
 26 27  1  0  0  0  0
 26 30  1  0  0  0  0
 27 28  2  0  0  0  0
 28 29  1  0  0  0  0
 29 30  2  0  0  0  0
  3 31  1  0  0  0  0
  4 32  1  0  0  0  0
  5 33  1  0  0  0  0
 12 34  1  0  0  0  0
 14 35  1  0  0  0  0
 14 36  1  0  0  0  0
 14 37  1  0  0  0  0
 17 38  1  0  0  0  0
 19 39  1  0  0  0  0
 23 40  1  0  0  0  0
 24 41  1  0  0  0  0
 24 42  1  0  0  0  0
 24 43  1  0  0  0  0
 25 44  1  0  0  0  0
 25 45  1  0  0  0  0
 28 46  1  0  0  0  0
M  END
> <r_user_dG.exp>
-10.8254

$$$$
p38a_3fmh
  -OEChem-05162309453D
 Structure written by MMmdl.
 46 49  0     1  0  0  0  0  0999 V2000
   38.1822   37.2781   14.6780 F   0  0  0  0  0  0  0  0  0  0  0  0
   37.6121   36.6927   15.7561 C   0  0  0  0  0  0  0  0  0  0  0  0
   36.3306   36.1234   15.6494 C   0  0  0  0  0  0  0  0  0  0  0  0
   35.7306   35.5282   16.7729 C   0  0  0  0  0  0  0  0  0  0  0  0
   38.2935   36.6633   16.9880 C   0  0  0  0  0  0  0  0  0  0  0  0
   37.6845   36.0889   18.1187 C   0  0  0  0  0  0  0  0  0  0  0  0
   38.3244   36.1063   19.3118 F   0  0  0  0  0  0  0  0  0  0  0  0
   36.3984   35.5157   18.0135 C   0  0  0  0  0  0  0  0  0  0  0  0
   35.8110   34.8859   19.0798 O   0  0  0  0  0  0  0  0  0  0  0  0
   35.2195   35.5980   20.0991 C   0  0  0  0  0  0  0  0  0  0  0  0
   34.4802   34.7957   21.0797 C   0  0  0  0  0  0  0  0  0  0  0  0
   34.3267   33.5841   20.9220 O   0  0  0  0  0  0  0  0  0  0  0  0
   33.9629   35.4463   22.1618 N   0  0  0  0  0  0  0  0  0  0  0  0
   33.2518   34.6745   23.1957 C   0  0  0  0  0  0  0  0  0  0  0  0
   34.0492   36.8642   22.3395 C   0  0  0  0  0  0  0  0  0  0  0  0
   33.5187   37.4796   23.4172 N   0  0  0  0  0  0  0  0  0  0  0  0
   35.3129   36.9423   20.2265 C   0  0  0  0  0  0  0  0  0  0  0  0
   34.7216   37.6302   21.3651 C   0  0  0  0  0  0  0  0  0  0  0  0
   34.8051   39.0231   21.5733 C   0  0  0  0  0  0  0  0  0  0  0  0
   34.2844   39.6080   22.6737 N   0  0  0  0  0  0  0  0  0  0  0  0
   33.6693   38.7965   23.5368 C   0  0  0  0  0  0  0  0  0  0  0  0
   33.1669   39.3731   24.6802 N   0  0  0  0  0  0  0  0  0  0  0  0
   32.3829   38.7485   25.7392 C   0  0  2  0  0  0  0  0  0  0  0  0
   31.2835   39.7010   26.2143 C   0  0  0  0  0  0  0  0  0  0  0  0
   33.2806   38.2181   26.8795 C   0  0  0  0  0  0  0  0  0  0  0  0
   34.1195   39.2305   27.5029 N   0  0  0  0  0  0  0  0  0  0  0  0
   35.4196   39.3870   27.1864 N   0  0  0  0  0  0  0  0  0  0  0  0
   35.7283   40.3837   28.0005 C   0  0  0  0  0  0  0  0  0  0  0  0
   34.6917   40.8108   28.7755 N   0  0  0  0  0  0  0  0  0  0  0  0
   33.6769   40.0724   28.4600 N   0  0  0  0  0  0  0  0  0  0  0  0
   35.8076   36.1434   14.7047 H   0  0  0  0  0  0  0  0  0  0  0  0
   34.7528   35.0782   16.6846 H   0  0  0  0  0  0  0  0  0  0  0  0
   39.2858   37.0826   17.0650 H   0  0  0  0  0  0  0  0  0  0  0  0
   32.9048   35.3544   23.9878 H   0  0  0  0  0  0  0  0  0  0  0  0
   32.3870   34.1664   22.7439 H   0  0  0  0  0  0  0  0  0  0  0  0
   33.9325   33.9259   23.6274 H   0  0  0  0  0  0  0  0  0  0  0  0
   35.8339   37.5131   19.4721 H   0  0  0  0  0  0  0  0  0  0  0  0
   33.7822   37.7614   20.8081 H   0  0  0  0  0  0  0  0  0  0  0  0
   35.2979   39.6372   20.8340 H   0  0  0  0  0  0  0  0  0  0  0  0
   31.8773   37.8731   25.3056 H   0  0  0  0  0  0  0  0  0  0  0  0
   30.6996   39.2190   27.0123 H   0  0  0  0  0  0  0  0  0  0  0  0
   31.7401   40.6241   26.6007 H   0  0  0  0  0  0  0  0  0  0  0  0
   30.6204   39.9450   25.3712 H   0  0  0  0  0  0  0  0  0  0  0  0
   32.6320   37.7835   27.6544 H   0  0  0  0  0  0  0  0  0  0  0  0
   33.9344   37.4354   26.4672 H   0  0  0  0  0  0  0  0  0  0  0  0
   36.7150   40.8203   28.0467 H   0  0  0  0  0  0  0  0  0  0  0  0
  1  2  1  0  0  0  0
  2  3  2  0  0  0  0
  2  5  1  0  0  0  0
  3  4  1  0  0  0  0
  4  8  2  0  0  0  0
  5  6  2  0  0  0  0
  6  7  1  0  0  0  0
  6  8  1  0  0  0  0
  8  9  1  0  0  0  0
  9 10  1  0  0  0  0
 10 11  1  0  0  0  0
 10 17  2  0  0  0  0
 11 12  2  0  0  0  0
 11 13  1  0  0  0  0
 13 14  1  0  0  0  0
 13 15  1  0  0  0  0
 15 16  2  0  0  0  0
 15 18  1  0  0  0  0
 16 21  1  0  0  0  0
 17 18  1  0  0  0  0
 18 19  1  0  0  0  0
 19 20  2  0  0  0  0
 20 21  1  0  0  0  0
 21 22  2  0  0  0  0
 22 23  1  0  0  0  0
 23 24  1  0  0  0  0
 23 25  1  0  0  0  0
 25 26  1  0  0  0  0
 26 27  1  0  0  0  0
 26 30  1  0  0  0  0
 27 28  2  0  0  0  0
 28 29  1  0  0  0  0
 29 30  2  0  0  0  0
  3 31  1  0  0  0  0
  4 32  1  0  0  0  0
  5 33  1  0  0  0  0
 14 34  1  0  0  0  0
 14 35  1  0  0  0  0
 14 36  1  0  0  0  0
 17 37  1  0  0  0  0
 18 38  1  0  0  0  0
 19 39  1  0  0  0  0
 23 40  1  0  0  0  0
 24 41  1  0  0  0  0
 24 42  1  0  0  0  0
 24 43  1  0  0  0  0
 25 44  1  0  0  0  0
 25 45  1  0  0  0  0
 28 46  1  0  0  0  0
M  END
> <r_user_dG.exp>
-10.8254

$$$$
p38a_3fmh
  -OEChem-05162309453D
 Structure written by MMmdl.
 46 49  0     1  0  0  0  0  0999 V2000
   38.1822   37.2781   14.6780 F   0  0  0  0  0  0  0  0  0  0  0  0
   37.6121   36.6927   15.7561 C   0  0  0  0  0  0  0  0  0  0  0  0
   36.3306   36.1234   15.6494 C   0  0  0  0  0  0  0  0  0  0  0  0
   35.7306   35.5282   16.7729 C   0  0  0  0  0  0  0  0  0  0  0  0
   38.2935   36.6633   16.9880 C   0  0  0  0  0  0  0  0  0  0  0  0
   37.6845   36.0889   18.1187 C   0  0  0  0  0  0  0  0  0  0  0  0
   38.3244   36.1063   19.3118 F   0  0  0  0  0  0  0  0  0  0  0  0
   36.3984   35.5157   18.0135 C   0  0  0  0  0  0  0  0  0  0  0  0
   35.8110   34.8859   19.0798 O   0  0  0  0  0  0  0  0  0  0  0  0
   35.2195   35.5980   20.0991 C   0  0  0  0  0  0  0  0  0  0  0  0
   34.4802   34.7957   21.0797 C   0  0  0  0  0  0  0  0  0  0  0  0
   34.3267   33.5841   20.9220 O   0  0  0  0  0  0  0  0  0  0  0  0
   33.9629   35.4463   22.1618 N   0  0  0  0  0  0  0  0  0  0  0  0
   33.2518   34.6745   23.1957 C   0  0  0  0  0  0  0  0  0  0  0  0
   34.0492   36.8642   22.3395 C   0  0  0  0  0  0  0  0  0  0  0  0
   33.5187   37.4796   23.4172 N   0  0  0  0  0  0  0  0  0  0  0  0
   35.3129   36.9423   20.2265 C   0  0  0  0  0  0  0  0  0  0  0  0
   34.7216   37.6302   21.3651 C   0  0  0  0  0  0  0  0  0  0  0  0
   34.8051   39.0231   21.5733 C   0  0  0  0  0  0  0  0  0  0  0  0
   34.2844   39.6080   22.6737 N   0  0  0  0  0  0  0  0  0  0  0  0
   33.6693   38.7965   23.5368 C   0  0  0  0  0  0  0  0  0  0  0  0
   33.1669   39.3731   24.6802 N   0  0  0  0  0  0  0  0  0  0  0  0
   32.3829   38.7485   25.7392 C   0  0  2  0  0  0  0  0  0  0  0  0
   31.2835   39.7010   26.2143 C   0  0  0  0  0  0  0  0  0  0  0  0
   33.2806   38.2181   26.8795 C   0  0  0  0  0  0  0  0  0  0  0  0
   34.1195   39.2305   27.5029 N   0  0  0  0  0  0  0  0  0  0  0  0
   35.4196   39.3870   27.1864 N   0  0  0  0  0  0  0  0  0  0  0  0
   35.7283   40.3837   28.0005 C   0  0  0  0  0  0  0  0  0  0  0  0
   34.6917   40.8108   28.7755 N   0  0  0  0  0  0  0  0  0  0  0  0
   33.6769   40.0724   28.4600 N   0  0  0  0  0  0  0  0  0  0  0  0
   35.8076   36.1434   14.7047 H   0  0  0  0  0  0  0  0  0  0  0  0
   34.7528   35.0782   16.6846 H   0  0  0  0  0  0  0  0  0  0  0  0
   39.2858   37.0826   17.0650 H   0  0  0  0  0  0  0  0  0  0  0  0
   34.3063   35.7128   19.4966 H   0  0  0  0  0  0  0  0  0  0  0  0
   32.9048   35.3544   23.9878 H   0  0  0  0  0  0  0  0  0  0  0  0
   32.3870   34.1664   22.7439 H   0  0  0  0  0  0  0  0  0  0  0  0
   33.9325   33.9259   23.6274 H   0  0  0  0  0  0  0  0  0  0  0  0
   35.8339   37.5131   19.4721 H   0  0  0  0  0  0  0  0  0  0  0  0
   35.2979   39.6372   20.8340 H   0  0  0  0  0  0  0  0  0  0  0  0
   31.8773   37.8731   25.3056 H   0  0  0  0  0  0  0  0  0  0  0  0
   30.6996   39.2190   27.0123 H   0  0  0  0  0  0  0  0  0  0  0  0
   31.7401   40.6241   26.6007 H   0  0  0  0  0  0  0  0  0  0  0  0
   30.6204   39.9450   25.3712 H   0  0  0  0  0  0  0  0  0  0  0  0
   32.6320   37.7835   27.6544 H   0  0  0  0  0  0  0  0  0  0  0  0
   33.9344   37.4354   26.4672 H   0  0  0  0  0  0  0  0  0  0  0  0
   36.7150   40.8203   28.0467 H   0  0  0  0  0  0  0  0  0  0  0  0
  1  2  1  0  0  0  0
  2  3  2  0  0  0  0
  2  5  1  0  0  0  0
  3  4  1  0  0  0  0
  4  8  2  0  0  0  0
  5  6  2  0  0  0  0
  6  7  1  0  0  0  0
  6  8  1  0  0  0  0
  8  9  1  0  0  0  0
  9 10  1  0  0  0  0
 10 11  1  0  0  0  0
 10 17  1  0  0  0  0
 11 12  2  0  0  0  0
 11 13  1  0  0  0  0
 13 14  1  0  0  0  0
 13 15  1  0  0  0  0
 15 16  2  0  0  0  0
 15 18  1  0  0  0  0
 16 21  1  0  0  0  0
 17 18  2  0  0  0  0
 18 19  1  0  0  0  0
 19 20  2  0  0  0  0
 20 21  1  0  0  0  0
 21 22  2  0  0  0  0
 22 23  1  0  0  0  0
 23 24  1  0  0  0  0
 23 25  1  0  0  0  0
 25 26  1  0  0  0  0
 26 27  1  0  0  0  0
 26 30  1  0  0  0  0
 27 28  2  0  0  0  0
 28 29  1  0  0  0  0
 29 30  2  0  0  0  0
  3 31  1  0  0  0  0
  4 32  1  0  0  0  0
  5 33  1  0  0  0  0
 10 34  1  0  0  0  0
 14 35  1  0  0  0  0
 14 36  1  0  0  0  0
 14 37  1  0  0  0  0
 17 38  1  0  0  0  0
 19 39  1  0  0  0  0
 23 40  1  0  0  0  0
 24 41  1  0  0  0  0
 24 42  1  0  0  0  0
 24 43  1  0  0  0  0
 25 44  1  0  0  0  0
 25 45  1  0  0  0  0
 28 46  1  0  0  0  0
M  END
> <r_user_dG.exp>
-10.8254

$$$$
