p38a_2j
  -OEChem-05162309453D
 Structure written by MMmdl.
 48 51  0     0  0  0  0  0  0999 V2000
   31.6235   38.9529   26.1544 C   0  0  0  0  0  0  0  0  0  0  0  0
   31.0952   38.3551   27.4684 C   0  0  0  0  0  0  0  0  0  0  0  0
   33.0541   38.9788   28.6539 C   0  0  0  0  0  0  0  0  0  0  0  0
   33.6809   39.6144   27.4031 C   0  0  0  0  0  0  0  0  0  0  0  0
   38.3660   36.7077   16.8209 C   0  0  0  0  0  0  0  0  0  0  0  0
   31.6350   39.0631   28.5784 O   0  0  0  0  0  0  0  0  0  0  0  0
   34.5448   34.9770   21.1828 C   0  0  0  0  0  0  0  0  0  0  0  0
   37.6997   36.1819   17.9448 C   0  0  0  0  0  0  0  0  0  0  0  0
   34.0445   38.9756   23.7378 C   0  0  0  0  0  0  0  0  0  0  0  0
   33.1562   38.9294   26.1332 C   0  0  0  0  0  0  0  0  0  0  0  0
   34.8025   37.8108   21.4407 C   0  0  0  0  0  0  0  0  0  0  0  0
   35.2536   37.1252   20.2344 C   0  0  0  0  0  0  0  0  0  0  0  0
   36.4300   36.2096   15.4303 C   0  0  0  0  0  0  0  0  0  0  0  0
   35.7747   35.6617   16.5471 C   0  0  0  0  0  0  0  0  0  0  0  0
   34.3067   37.0366   22.5109 C   0  0  0  0  0  0  0  0  0  0  0  0
   34.8522   39.2088   21.6169 C   0  0  0  0  0  0  0  0  0  0  0  0
   35.1646   35.7815   20.1251 C   0  0  0  0  0  0  0  0  0  0  0  0
   36.3960   35.6573   17.8103 C   0  0  0  0  0  0  0  0  0  0  0  0
   33.6690   34.8315   23.4618 C   0  0  0  0  0  0  0  0  0  0  0  0
   38.2989   36.1901   19.1355 F   0  0  0  0  0  0  0  0  0  0  0  0
   35.6924   34.9985   18.9596 C   0  0  0  0  0  0  0  0  0  0  0  0
   34.4789   39.7925   22.7772 N   0  0  0  0  0  0  0  0  0  0  0  0
   34.3290   33.7761   21.0235 O   0  0  0  0  0  0  0  0  0  0  0  0
   34.2121   35.6181   22.3415 N   0  0  0  0  0  0  0  0  0  0  0  0
   33.9306   37.6499   23.6560 N   0  0  0  0  0  0  0  0  0  0  0  0
   33.6717   39.5652   24.9268 N   0  0  0  0  0  0  0  0  0  0  0  0
   37.7595   36.7642   15.5101 C   0  0  0  0  0  0  0  0  0  0  0  0
   38.3816   37.2891   14.4545 F   0  0  0  0  0  0  0  0  0  0  0  0
   31.2405   38.3633   25.3084 H   0  0  0  0  0  0  0  0  0  0  0  0
   31.2759   39.9926   26.0639 H   0  0  0  0  0  0  0  0  0  0  0  0
   29.9979   38.4304   27.4873 H   0  0  0  0  0  0  0  0  0  0  0  0
   31.3913   37.2976   27.5322 H   0  0  0  0  0  0  0  0  0  0  0  0
   33.3543   37.9224   28.7161 H   0  0  0  0  0  0  0  0  0  0  0  0
   33.4045   39.5129   29.5494 H   0  0  0  0  0  0  0  0  0  0  0  0
   33.4222   40.6831   27.3715 H   0  0  0  0  0  0  0  0  0  0  0  0
   34.7743   39.5030   27.4494 H   0  0  0  0  0  0  0  0  0  0  0  0
   39.3709   37.0840   16.9434 H   0  0  0  0  0  0  0  0  0  0  0  0
   33.4820   37.8789   26.1529 H   0  0  0  0  0  0  0  0  0  0  0  0
   35.6644   37.6998   19.4174 H   0  0  0  0  0  0  0  0  0  0  0  0
   35.9198   36.2155   14.4784 H   0  0  0  0  0  0  0  0  0  0  0  0
   34.7865   35.2407   16.4349 H   0  0  0  0  0  0  0  0  0  0  0  0
   35.1976   39.8294   20.8033 H   0  0  0  0  0  0  0  0  0  0  0  0
   33.4566   35.4988   24.3101 H   0  0  0  0  0  0  0  0  0  0  0  0
   32.7402   34.3349   23.1446 H   0  0  0  0  0  0  0  0  0  0  0  0
   34.4045   34.0728   23.7675 H   0  0  0  0  0  0  0  0  0  0  0  0
   36.4012   34.2676   19.3759 H   0  0  0  0  0  0  0  0  0  0  0  0
   34.8298   34.4687   18.5292 H   0  0  0  0  0  0  0  0  0  0  0  0
   34.4889   40.0547   25.2310 H   0  0  0  0  0  0  0  0  0  0  0  0
  1  2  1  0  0  0  0
  1 10  1  0  0  0  0
  2  6  1  0  0  0  0
  3  4  1  0  0  0  0
  3  6  1  0  0  0  0
  4 10  1  0  0  0  0
  5  8  2  0  0  0  0
  5 27  1  0  0  0  0
  7 17  1  0  0  0  0
  7 23  2  0  0  0  0
  7 24  1  0  0  0  0
  8 18  1  0  0  0  0
  8 20  1  0  0  0  0
  9 22  2  0  0  0  0
  9 25  1  0  0  0  0
  9 26  1  0  0  0  0
 10 26  1  0  0  0  0
 11 12  1  0  0  0  0
 11 15  1  0  0  0  0
 11 16  2  0  0  0  0
 12 17  2  0  0  0  0
 13 14  1  0  0  0  0
 13 27  2  0  0  0  0
 14 18  2  0  0  0  0
 15 24  1  0  0  0  0
 15 25  2  0  0  0  0
 16 22  1  0  0  0  0
 17 21  1  0  0  0  0
 18 21  1  0  0  0  0
 19 24  1  0  0  0  0
 27 28  1  0  0  0  0
  1 29  1  0  0  0  0
  1 30  1  0  0  0  0
  2 31  1  0  0  0  0
  2 32  1  0  0  0  0
  3 33  1  0  0  0  0
  3 34  1  0  0  0  0
  4 35  1  0  0  0  0
  4 36  1  0  0  0  0
  5 37  1  0  0  0  0
 10 38  1  0  0  0  0
 12 39  1  0  0  0  0
 13 40  1  0  0  0  0
 14 41  1  0  0  0  0
 16 42  1  0  0  0  0
 19 43  1  0  0  0  0
 19 44  1  0  0  0  0
 19 45  1  0  0  0  0
 21 46  1  0  0  0  0
 21 47  1  0  0  0  0
 26 48  1  0  0  0  0
M  END
> <r_user_dG.exp>
-10.081

$$$$
p38a_2j
  -OEChem-05162309453D
 Structure written by MMmdl.
 48 51  0     0  0  0  0  0  0999 V2000
   31.6235   38.9529   26.1544 C   0  0  0  0  0  0  0  0  0  0  0  0
   31.0952   38.3551   27.4684 C   0  0  0  0  0  0  0  0  0  0  0  0
   33.0541   38.9788   28.6539 C   0  0  0  0  0  0  0  0  0  0  0  0
   33.6809   39.6144   27.4031 C   0  0  0  0  0  0  0  0  0  0  0  0
   38.3660   36.7077   16.8209 C   0  0  0  0  0  0  0  0  0  0  0  0
   31.6350   39.0631   28.5784 O   0  0  0  0  0  0  0  0  0  0  0  0
   34.5448   34.9770   21.1828 C   0  0  0  0  0  0  0  0  0  0  0  0
   37.6997   36.1819   17.9448 C   0  0  0  0  0  0  0  0  0  0  0  0
   34.0445   38.9756   23.7378 C   0  0  0  0  0  0  0  0  0  0  0  0
   33.1562   38.9294   26.1332 C   0  0  0  0  0  0  0  0  0  0  0  0
   34.8025   37.8108   21.4407 C   0  0  0  0  0  0  0  0  0  0  0  0
   35.2536   37.1252   20.2344 C   0  0  0  0  0  0  0  0  0  0  0  0
   36.4300   36.2096   15.4303 C   0  0  0  0  0  0  0  0  0  0  0  0
   35.7747   35.6617   16.5471 C   0  0  0  0  0  0  0  0  0  0  0  0
   34.3067   37.0366   22.5109 C   0  0  0  0  0  0  0  0  0  0  0  0
   34.8522   39.2088   21.6169 C   0  0  0  0  0  0  0  0  0  0  0  0
   35.1646   35.7815   20.1251 C   0  0  0  0  0  0  0  0  0  0  0  0
   36.3960   35.6573   17.8103 C   0  0  0  0  0  0  0  0  0  0  0  0
   33.6690   34.8315   23.4618 C   0  0  0  0  0  0  0  0  0  0  0  0
   38.2989   36.1901   19.1355 F   0  0  0  0  0  0  0  0  0  0  0  0
   35.6924   34.9985   18.9596 C   0  0  0  0  0  0  0  0  0  0  0  0
   34.4789   39.7925   22.7772 N   0  0  0  0  0  0  0  0  0  0  0  0
   34.3290   33.7761   21.0235 O   0  0  0  0  0  0  0  0  0  0  0  0
   34.2121   35.6181   22.3415 N   0  0  0  0  0  0  0  0  0  0  0  0
   33.9306   37.6499   23.6560 N   0  0  0  0  0  0  0  0  0  0  0  0
   33.6717   39.5652   24.9268 N   0  0  0  0  0  0  0  0  0  0  0  0
   37.7595   36.7642   15.5101 C   0  0  0  0  0  0  0  0  0  0  0  0
   38.3816   37.2891   14.4545 F   0  0  0  0  0  0  0  0  0  0  0  0
   31.2405   38.3633   25.3084 H   0  0  0  0  0  0  0  0  0  0  0  0
   31.2759   39.9926   26.0639 H   0  0  0  0  0  0  0  0  0  0  0  0
   29.9979   38.4304   27.4873 H   0  0  0  0  0  0  0  0  0  0  0  0
   31.3913   37.2976   27.5322 H   0  0  0  0  0  0  0  0  0  0  0  0
   33.3543   37.9224   28.7161 H   0  0  0  0  0  0  0  0  0  0  0  0
   33.4045   39.5129   29.5494 H   0  0  0  0  0  0  0  0  0  0  0  0
   33.4222   40.6831   27.3715 H   0  0  0  0  0  0  0  0  0  0  0  0
   34.7743   39.5030   27.4494 H   0  0  0  0  0  0  0  0  0  0  0  0
   39.3709   37.0840   16.9434 H   0  0  0  0  0  0  0  0  0  0  0  0
   33.4820   37.8789   26.1529 H   0  0  0  0  0  0  0  0  0  0  0  0
   35.6644   37.6998   19.4174 H   0  0  0  0  0  0  0  0  0  0  0  0
   35.9198   36.2155   14.4784 H   0  0  0  0  0  0  0  0  0  0  0  0
   34.7865   35.2407   16.4349 H   0  0  0  0  0  0  0  0  0  0  0  0
   35.1976   39.8294   20.8033 H   0  0  0  0  0  0  0  0  0  0  0  0
   33.4566   35.4988   24.3101 H   0  0  0  0  0  0  0  0  0  0  0  0
   32.7402   34.3349   23.1446 H   0  0  0  0  0  0  0  0  0  0  0  0
   34.4045   34.0728   23.7675 H   0  0  0  0  0  0  0  0  0  0  0  0
   36.4012   34.2676   19.3759 H   0  0  0  0  0  0  0  0  0  0  0  0
   34.8298   34.4687   18.5292 H   0  0  0  0  0  0  0  0  0  0  0  0
   33.5744   37.1199   24.4255 H   0  0  0  0  0  0  0  0  0  0  0  0
  1  2  1  0  0  0  0
  1 10  1  0  0  0  0
  2  6  1  0  0  0  0
  3  4  1  0  0  0  0
  3  6  1  0  0  0  0
  4 10  1  0  0  0  0
  5  8  2  0  0  0  0
  5 27  1  0  0  0  0
  7 17  1  0  0  0  0
  7 23  2  0  0  0  0
  7 24  1  0  0  0  0
  8 18  1  0  0  0  0
  8 20  1  0  0  0  0
  9 22  1  0  0  0  0
  9 25  1  0  0  0  0
  9 26  2  0  0  0  0
 10 26  1  0  0  0  0
 11 12  1  0  0  0  0
 11 15  2  0  0  0  0
 11 16  1  0  0  0  0
 12 17  2  0  0  0  0
 13 14  1  0  0  0  0
 13 27  2  0  0  0  0
 14 18  2  0  0  0  0
 15 24  1  0  0  0  0
 15 25  1  0  0  0  0
 16 22  2  0  0  0  0
 17 21  1  0  0  0  0
 18 21  1  0  0  0  0
 19 24  1  0  0  0  0
 27 28  1  0  0  0  0
  1 29  1  0  0  0  0
  1 30  1  0  0  0  0
  2 31  1  0  0  0  0
  2 32  1  0  0  0  0
  3 33  1  0  0  0  0
  3 34  1  0  0  0  0
  4 35  1  0  0  0  0
  4 36  1  0  0  0  0
  5 37  1  0  0  0  0
 10 38  1  0  0  0  0
 12 39  1  0  0  0  0
 13 40  1  0  0  0  0
 14 41  1  0  0  0  0
 16 42  1  0  0  0  0
 19 43  1  0  0  0  0
 19 44  1  0  0  0  0
 19 45  1  0  0  0  0
 21 46  1  0  0  0  0
 21 47  1  0  0  0  0
 25 48  1  0  0  0  0
M  END
> <r_user_dG.exp>
-10.081

$$$$
p38a_2j
  -OEChem-05162309453D
 Structure written by MMmdl.
 48 51  0     0  0  0  0  0  0999 V2000
   31.6235   38.9529   26.1544 C   0  0  0  0  0  0  0  0  0  0  0  0
   31.0952   38.3551   27.4684 C   0  0  0  0  0  0  0  0  0  0  0  0
   33.0541   38.9788   28.6539 C   0  0  0  0  0  0  0  0  0  0  0  0
   33.6809   39.6144   27.4031 C   0  0  0  0  0  0  0  0  0  0  0  0
   38.3660   36.7077   16.8209 C   0  0  0  0  0  0  0  0  0  0  0  0
   31.6350   39.0631   28.5784 O   0  0  0  0  0  0  0  0  0  0  0  0
   34.5448   34.9770   21.1828 C   0  0  0  0  0  0  0  0  0  0  0  0
   37.6997   36.1819   17.9448 C   0  0  0  0  0  0  0  0  0  0  0  0
   34.0445   38.9756   23.7378 C   0  0  0  0  0  0  0  0  0  0  0  0
   33.1562   38.9294   26.1332 C   0  0  0  0  0  0  0  0  0  0  0  0
   34.8025   37.8108   21.4407 C   0  0  0  0  0  0  0  0  0  0  0  0
   35.2536   37.1252   20.2344 C   0  0  0  0  0  0  0  0  0  0  0  0
   36.4300   36.2096   15.4303 C   0  0  0  0  0  0  0  0  0  0  0  0
   35.7747   35.6617   16.5471 C   0  0  0  0  0  0  0  0  0  0  0  0
   34.3067   37.0366   22.5109 C   0  0  0  0  0  0  0  0  0  0  0  0
   34.8522   39.2088   21.6169 C   0  0  0  0  0  0  0  0  0  0  0  0
   35.1646   35.7815   20.1251 C   0  0  0  0  0  0  0  0  0  0  0  0
   36.3960   35.6573   17.8103 C   0  0  0  0  0  0  0  0  0  0  0  0
   33.6690   34.8315   23.4618 C   0  0  0  0  0  0  0  0  0  0  0  0
   38.2989   36.1901   19.1355 F   0  0  0  0  0  0  0  0  0  0  0  0
   35.6924   34.9985   18.9596 C   0  0  0  0  0  0  0  0  0  0  0  0
   34.4789   39.7925   22.7772 N   0  0  0  0  0  0  0  0  0  0  0  0
   34.3290   33.7761   21.0235 O   0  0  0  0  0  0  0  0  0  0  0  0
   34.2121   35.6181   22.3415 N   0  0  0  0  0  0  0  0  0  0  0  0
   33.9306   37.6499   23.6560 N   0  0  0  0  0  0  0  0  0  0  0  0
   33.6717   39.5652   24.9268 N   0  0  0  0  0  0  0  0  0  0  0  0
   37.7595   36.7642   15.5101 C   0  0  0  0  0  0  0  0  0  0  0  0
   38.3816   37.2891   14.4545 F   0  0  0  0  0  0  0  0  0  0  0  0
   31.2405   38.3633   25.3084 H   0  0  0  0  0  0  0  0  0  0  0  0
   31.2759   39.9926   26.0639 H   0  0  0  0  0  0  0  0  0  0  0  0
   29.9979   38.4304   27.4873 H   0  0  0  0  0  0  0  0  0  0  0  0
   31.3913   37.2976   27.5322 H   0  0  0  0  0  0  0  0  0  0  0  0
   33.3543   37.9224   28.7161 H   0  0  0  0  0  0  0  0  0  0  0  0
   33.4045   39.5129   29.5494 H   0  0  0  0  0  0  0  0  0  0  0  0
   33.4222   40.6831   27.3715 H   0  0  0  0  0  0  0  0  0  0  0  0
   34.7743   39.5030   27.4494 H   0  0  0  0  0  0  0  0  0  0  0  0
   39.3709   37.0840   16.9434 H   0  0  0  0  0  0  0  0  0  0  0  0
   33.4820   37.8789   26.1529 H   0  0  0  0  0  0  0  0  0  0  0  0
   35.6644   37.6998   19.4174 H   0  0  0  0  0  0  0  0  0  0  0  0
   35.9198   36.2155   14.4784 H   0  0  0  0  0  0  0  0  0  0  0  0
   34.7865   35.2407   16.4349 H   0  0  0  0  0  0  0  0  0  0  0  0
   35.1976   39.8294   20.8033 H   0  0  0  0  0  0  0  0  0  0  0  0
   33.4566   35.4988   24.3101 H   0  0  0  0  0  0  0  0  0  0  0  0
   32.7402   34.3349   23.1446 H   0  0  0  0  0  0  0  0  0  0  0  0
   34.4045   34.0728   23.7675 H   0  0  0  0  0  0  0  0  0  0  0  0
   36.4012   34.2676   19.3759 H   0  0  0  0  0  0  0  0  0  0  0  0
   34.8298   34.4687   18.5292 H   0  0  0  0  0  0  0  0  0  0  0  0
   34.5258   40.7827   22.9084 H   0  0  0  0  0  0  0  0  0  0  0  0
  1  2  1  0  0  0  0
  1 10  1  0  0  0  0
  2  6  1  0  0  0  0
  3  4  1  0  0  0  0
  3  6  1  0  0  0  0
  4 10  1  0  0  0  0
  5  8  2  0  0  0  0
  5 27  1  0  0  0  0
  7 17  1  0  0  0  0
  7 23  2  0  0  0  0
  7 24  1  0  0  0  0
  8 18  1  0  0  0  0
  8 20  1  0  0  0  0
  9 22  1  0  0  0  0
  9 25  1  0  0  0  0
  9 26  2  0  0  0  0
 10 26  1  0  0  0  0
 11 12  1  0  0  0  0
 11 15  1  0  0  0  0
 11 16  2  0  0  0  0
 12 17  2  0  0  0  0
 13 14  1  0  0  0  0
 13 27  2  0  0  0  0
 14 18  2  0  0  0  0
 15 24  1  0  0  0  0
 15 25  2  0  0  0  0
 16 22  1  0  0  0  0
 17 21  1  0  0  0  0
 18 21  1  0  0  0  0
 19 24  1  0  0  0  0
 27 28  1  0  0  0  0
  1 29  1  0  0  0  0
  1 30  1  0  0  0  0
  2 31  1  0  0  0  0
  2 32  1  0  0  0  0
  3 33  1  0  0  0  0
  3 34  1  0  0  0  0
  4 35  1  0  0  0  0
  4 36  1  0  0  0  0
  5 37  1  0  0  0  0
 10 38  1  0  0  0  0
 12 39  1  0  0  0  0
 13 40  1  0  0  0  0
 14 41  1  0  0  0  0
 16 42  1  0  0  0  0
 19 43  1  0  0  0  0
 19 44  1  0  0  0  0
 19 45  1  0  0  0  0
 21 46  1  0  0  0  0
 21 47  1  0  0  0  0
 22 48  1  0  0  0  0
M  END
> <r_user_dG.exp>
-10.081

$$$$
p38a_2j
  -OEChem-05162309453D
 Structure written by MMmdl.
 48 51  0     0  0  0  0  0  0999 V2000
   31.6235   38.9529   26.1544 C   0  0  0  0  0  0  0  0  0  0  0  0
   31.0952   38.3551   27.4684 C   0  0  0  0  0  0  0  0  0  0  0  0
   33.0541   38.9788   28.6539 C   0  0  0  0  0  0  0  0  0  0  0  0
   33.6809   39.6144   27.4031 C   0  0  0  0  0  0  0  0  0  0  0  0
   38.3660   36.7077   16.8209 C   0  0  0  0  0  0  0  0  0  0  0  0
   31.6350   39.0631   28.5784 O   0  0  0  0  0  0  0  0  0  0  0  0
   34.5448   34.9770   21.1828 C   0  0  0  0  0  0  0  0  0  0  0  0
   37.6997   36.1819   17.9448 C   0  0  0  0  0  0  0  0  0  0  0  0
   34.0445   38.9756   23.7378 C   0  0  0  0  0  0  0  0  0  0  0  0
   33.1562   38.9294   26.1332 C   0  0  0  0  0  0  0  0  0  0  0  0
   34.8025   37.8108   21.4407 C   0  0  0  0  0  0  0  0  0  0  0  0
   35.2536   37.1252   20.2344 C   0  0  0  0  0  0  0  0  0  0  0  0
   36.4300   36.2096   15.4303 C   0  0  0  0  0  0  0  0  0  0  0  0
   35.7747   35.6617   16.5471 C   0  0  0  0  0  0  0  0  0  0  0  0
   34.3067   37.0366   22.5109 C   0  0  0  0  0  0  0  0  0  0  0  0
   34.8522   39.2088   21.6169 C   0  0  0  0  0  0  0  0  0  0  0  0
   35.1646   35.7815   20.1251 C   0  0  0  0  0  0  0  0  0  0  0  0
   36.3960   35.6573   17.8103 C   0  0  0  0  0  0  0  0  0  0  0  0
   33.6690   34.8315   23.4618 C   0  0  0  0  0  0  0  0  0  0  0  0
   38.2989   36.1901   19.1355 F   0  0  0  0  0  0  0  0  0  0  0  0
   35.6924   34.9985   18.9596 C   0  0  0  0  0  0  0  0  0  0  0  0
   34.4789   39.7925   22.7772 N   0  0  0  0  0  0  0  0  0  0  0  0
   34.3290   33.7761   21.0235 O   0  0  0  0  0  0  0  0  0  0  0  0
   34.2121   35.6181   22.3415 N   0  0  0  0  0  0  0  0  0  0  0  0
   33.9306   37.6499   23.6560 N   0  0  0  0  0  0  0  0  0  0  0  0
   33.6717   39.5652   24.9268 N   0  0  0  0  0  0  0  0  0  0  0  0
   37.7595   36.7642   15.5101 C   0  0  0  0  0  0  0  0  0  0  0  0
   38.3816   37.2891   14.4545 F   0  0  0  0  0  0  0  0  0  0  0  0
   31.2405   38.3633   25.3084 H   0  0  0  0  0  0  0  0  0  0  0  0
   31.2759   39.9926   26.0639 H   0  0  0  0  0  0  0  0  0  0  0  0
   29.9979   38.4304   27.4873 H   0  0  0  0  0  0  0  0  0  0  0  0
   31.3913   37.2976   27.5322 H   0  0  0  0  0  0  0  0  0  0  0  0
   33.3543   37.9224   28.7161 H   0  0  0  0  0  0  0  0  0  0  0  0
   33.4045   39.5129   29.5494 H   0  0  0  0  0  0  0  0  0  0  0  0
   33.4222   40.6831   27.3715 H   0  0  0  0  0  0  0  0  0  0  0  0
   34.7743   39.5030   27.4494 H   0  0  0  0  0  0  0  0  0  0  0  0
   39.3709   37.0840   16.9434 H   0  0  0  0  0  0  0  0  0  0  0  0
   33.4820   37.8789   26.1529 H   0  0  0  0  0  0  0  0  0  0  0  0
   35.6644   37.6998   19.4174 H   0  0  0  0  0  0  0  0  0  0  0  0
   35.9198   36.2155   14.4784 H   0  0  0  0  0  0  0  0  0  0  0  0
   34.7865   35.2407   16.4349 H   0  0  0  0  0  0  0  0  0  0  0  0
   35.1976   39.8294   20.8033 H   0  0  0  0  0  0  0  0  0  0  0  0
   33.4566   35.4988   24.3101 H   0  0  0  0  0  0  0  0  0  0  0  0
   32.7402   34.3349   23.1446 H   0  0  0  0  0  0  0  0  0  0  0  0
   34.4045   34.0728   23.7675 H   0  0  0  0  0  0  0  0  0  0  0  0
   36.4012   34.2676   19.3759 H   0  0  0  0  0  0  0  0  0  0  0  0
   34.8298   34.4687   18.5292 H   0  0  0  0  0  0  0  0  0  0  0  0
   33.9261   33.4197   21.8065 H   0  0  0  0  0  0  0  0  0  0  0  0
  1  2  1  0  0  0  0
  1 10  1  0  0  0  0
  2  6  1  0  0  0  0
  3  4  1  0  0  0  0
  3  6  1  0  0  0  0
  4 10  1  0  0  0  0
  5  8  2  0  0  0  0
  5 27  1  0  0  0  0
  7 17  2  0  0  0  0
  7 23  1  0  0  0  0
  7 24  1  0  0  0  0
  8 18  1  0  0  0  0
  8 20  1  0  0  0  0
  9 22  1  0  0  0  0
  9 25  1  0  0  0  0
  9 26  2  0  0  0  0
 10 26  1  0  0  0  0
 11 12  2  0  0  0  0
 11 15  1  0  0  0  0
 11 16  1  0  0  0  0
 12 17  1  0  0  0  0
 13 14  1  0  0  0  0
 13 27  2  0  0  0  0
 14 18  2  0  0  0  0
 15 24  1  0  0  0  0
 15 25  2  0  0  0  0
 16 22  2  0  0  0  0
 17 21  1  0  0  0  0
 18 21  1  0  0  0  0
 19 24  1  0  0  0  0
 27 28  1  0  0  0  0
  1 29  1  0  0  0  0
  1 30  1  0  0  0  0
  2 31  1  0  0  0  0
  2 32  1  0  0  0  0
  3 33  1  0  0  0  0
  3 34  1  0  0  0  0
  4 35  1  0  0  0  0
  4 36  1  0  0  0  0
  5 37  1  0  0  0  0
 10 38  1  0  0  0  0
 12 39  1  0  0  0  0
 13 40  1  0  0  0  0
 14 41  1  0  0  0  0
 16 42  1  0  0  0  0
 19 43  1  0  0  0  0
 19 44  1  0  0  0  0
 19 45  1  0  0  0  0
 21 46  1  0  0  0  0
 21 47  1  0  0  0  0
 23 48  1  0  0  0  0
M  END
> <r_user_dG.exp>
-10.081

$$$$
p38a_2j
  -OEChem-05162309453D
 Structure written by MMmdl.
 48 51  0     1  0  0  0  0  0999 V2000
   31.6235   38.9529   26.1544 C   0  0  0  0  0  0  0  0  0  0  0  0
   31.0952   38.3551   27.4684 C   0  0  0  0  0  0  0  0  0  0  0  0
   33.0541   38.9788   28.6539 C   0  0  0  0  0  0  0  0  0  0  0  0
   33.6809   39.6144   27.4031 C   0  0  0  0  0  0  0  0  0  0  0  0
   38.3660   36.7077   16.8209 C   0  0  0  0  0  0  0  0  0  0  0  0
   31.6350   39.0631   28.5784 O   0  0  0  0  0  0  0  0  0  0  0  0
   34.5448   34.9770   21.1828 C   0  0  0  0  0  0  0  0  0  0  0  0
   37.6997   36.1819   17.9448 C   0  0  0  0  0  0  0  0  0  0  0  0
   34.0445   38.9756   23.7378 C   0  0  0  0  0  0  0  0  0  0  0  0
   33.1562   38.9294   26.1332 C   0  0  0  0  0  0  0  0  0  0  0  0
   34.8025   37.8108   21.4407 C   0  0  0  0  0  0  0  0  0  0  0  0
   35.2536   37.1252   20.2344 C   0  0  0  0  0  0  0  0  0  0  0  0
   36.4300   36.2096   15.4303 C   0  0  0  0  0  0  0  0  0  0  0  0
   35.7747   35.6617   16.5471 C   0  0  0  0  0  0  0  0  0  0  0  0
   34.3067   37.0366   22.5109 C   0  0  0  0  0  0  0  0  0  0  0  0
   34.8522   39.2088   21.6169 C   0  0  0  0  0  0  0  0  0  0  0  0
   35.1646   35.7815   20.1251 C   0  0  3  0  0  0  0  0  0  0  0  0
   36.3960   35.6573   17.8103 C   0  0  0  0  0  0  0  0  0  0  0  0
   33.6690   34.8315   23.4618 C   0  0  0  0  0  0  0  0  0  0  0  0
   38.2989   36.1901   19.1355 F   0  0  0  0  0  0  0  0  0  0  0  0
   35.6924   34.9985   18.9596 C   0  0  0  0  0  0  0  0  0  0  0  0
   34.4789   39.7925   22.7772 N   0  0  0  0  0  0  0  0  0  0  0  0
   34.3290   33.7761   21.0235 O   0  0  0  0  0  0  0  0  0  0  0  0
   34.2121   35.6181   22.3415 N   0  0  0  0  0  0  0  0  0  0  0  0
   33.9306   37.6499   23.6560 N   0  0  0  0  0  0  0  0  0  0  0  0
   33.6717   39.5652   24.9268 N   0  0  0  0  0  0  0  0  0  0  0  0
   37.7595   36.7642   15.5101 C   0  0  0  0  0  0  0  0  0  0  0  0
   38.3816   37.2891   14.4545 F   0  0  0  0  0  0  0  0  0  0  0  0
   31.2405   38.3633   25.3084 H   0  0  0  0  0  0  0  0  0  0  0  0
   31.2759   39.9926   26.0639 H   0  0  0  0  0  0  0  0  0  0  0  0
   29.9979   38.4304   27.4873 H   0  0  0  0  0  0  0  0  0  0  0  0
   31.3913   37.2976   27.5322 H   0  0  0  0  0  0  0  0  0  0  0  0
   33.3543   37.9224   28.7161 H   0  0  0  0  0  0  0  0  0  0  0  0
   33.4045   39.5129   29.5494 H   0  0  0  0  0  0  0  0  0  0  0  0
   33.4222   40.6831   27.3715 H   0  0  0  0  0  0  0  0  0  0  0  0
   34.7743   39.5030   27.4494 H   0  0  0  0  0  0  0  0  0  0  0  0
   39.3709   37.0840   16.9434 H   0  0  0  0  0  0  0  0  0  0  0  0
   33.4820   37.8789   26.1529 H   0  0  0  0  0  0  0  0  0  0  0  0
   35.6644   37.6998   19.4174 H   0  0  0  0  0  0  0  0  0  0  0  0
   35.9198   36.2155   14.4784 H   0  0  0  0  0  0  0  0  0  0  0  0
   34.7865   35.2407   16.4349 H   0  0  0  0  0  0  0  0  0  0  0  0
   35.1976   39.8294   20.8033 H   0  0  0  0  0  0  0  0  0  0  0  0
   34.1908   35.8813   19.6234 H   0  0  0  0  0  0  0  0  0  0  0  0
   33.4566   35.4988   24.3101 H   0  0  0  0  0  0  0  0  0  0  0  0
   32.7402   34.3349   23.1446 H   0  0  0  0  0  0  0  0  0  0  0  0
   34.4045   34.0728   23.7675 H   0  0  0  0  0  0  0  0  0  0  0  0
   36.4012   34.2676   19.3759 H   0  0  0  0  0  0  0  0  0  0  0  0
   34.8298   34.4687   18.5292 H   0  0  0  0  0  0  0  0  0  0  0  0
  1  2  1  0  0  0  0
  1 10  1  0  0  0  0
  2  6  1  0  0  0  0
  3  4  1  0  0  0  0
  3  6  1  0  0  0  0
  4 10  1  0  0  0  0
  5  8  2  0  0  0  0
  5 27  1  0  0  0  0
  7 17  1  0  0  0  0
  7 23  2  0  0  0  0
  7 24  1  0  0  0  0
  8 18  1  0  0  0  0
  8 20  1  0  0  0  0
  9 22  1  0  0  0  0
  9 25  1  0  0  0  0
  9 26  2  0  0  0  0
 10 26  1  0  0  0  0
 11 12  2  0  0  0  0
 11 15  1  0  0  0  0
 11 16  1  0  0  0  0
 12 17  1  0  0  0  0
 13 14  1  0  0  0  0
 13 27  2  0  0  0  0
 14 18  2  0  0  0  0
 15 24  1  0  0  0  0
 15 25  2  0  0  0  0
 16 22  2  0  0  0  0
 17 21  1  0  0  0  0
 18 21  1  0  0  0  0
 19 24  1  0  0  0  0
 27 28  1  0  0  0  0
  1 29  1  0  0  0  0
  1 30  1  0  0  0  0
  2 31  1  0  0  0  0
  2 32  1  0  0  0  0
  3 33  1  0  0  0  0
  3 34  1  0  0  0  0
  4 35  1  0  0  0  0
  4 36  1  0  0  0  0
  5 37  1  0  0  0  0
 10 38  1  0  0  0  0
 12 39  1  0  0  0  0
 13 40  1  0  0  0  0
 14 41  1  0  0  0  0
 16 42  1  0  0  0  0
 17 43  1  0  0  0  0
 19 44  1  0  0  0  0
 19 45  1  0  0  0  0
 19 46  1  0  0  0  0
 21 47  1  0  0  0  0
 21 48  1  0  0  0  0
M  END
> <r_user_dG.exp>
-10.081

$$$$
p38a_2j
  -OEChem-05162309453D
 Structure written by MMmdl.
 48 51  0     1  0  0  0  0  0999 V2000
   31.6235   38.9529   26.1544 C   0  0  0  0  0  0  0  0  0  0  0  0
   31.0952   38.3551   27.4684 C   0  0  0  0  0  0  0  0  0  0  0  0
   33.0541   38.9788   28.6539 C   0  0  0  0  0  0  0  0  0  0  0  0
   33.6809   39.6144   27.4031 C   0  0  0  0  0  0  0  0  0  0  0  0
   38.3660   36.7077   16.8209 C   0  0  0  0  0  0  0  0  0  0  0  0
   31.6350   39.0631   28.5784 O   0  0  0  0  0  0  0  0  0  0  0  0
   34.5448   34.9770   21.1828 C   0  0  0  0  0  0  0  0  0  0  0  0
   37.6997   36.1819   17.9448 C   0  0  0  0  0  0  0  0  0  0  0  0
   34.0445   38.9756   23.7378 C   0  0  0  0  0  0  0  0  0  0  0  0
   33.1562   38.9294   26.1332 C   0  0  0  0  0  0  0  0  0  0  0  0
   34.8025   37.8108   21.4407 C   0  0  3  0  0  0  0  0  0  0  0  0
   35.2536   37.1252   20.2344 C   0  0  0  0  0  0  0  0  0  0  0  0
   36.4300   36.2096   15.4303 C   0  0  0  0  0  0  0  0  0  0  0  0
   35.7747   35.6617   16.5471 C   0  0  0  0  0  0  0  0  0  0  0  0
   34.3067   37.0366   22.5109 C   0  0  0  0  0  0  0  0  0  0  0  0
   34.8522   39.2088   21.6169 C   0  0  0  0  0  0  0  0  0  0  0  0
   35.1646   35.7815   20.1251 C   0  0  0  0  0  0  0  0  0  0  0  0
   36.3960   35.6573   17.8103 C   0  0  0  0  0  0  0  0  0  0  0  0
   33.6690   34.8315   23.4618 C   0  0  0  0  0  0  0  0  0  0  0  0
   38.2989   36.1901   19.1355 F   0  0  0  0  0  0  0  0  0  0  0  0
   35.6924   34.9985   18.9596 C   0  0  0  0  0  0  0  0  0  0  0  0
   34.4789   39.7925   22.7772 N   0  0  0  0  0  0  0  0  0  0  0  0
   34.3290   33.7761   21.0235 O   0  0  0  0  0  0  0  0  0  0  0  0
   34.2121   35.6181   22.3415 N   0  0  0  0  0  0  0  0  0  0  0  0
   33.9306   37.6499   23.6560 N   0  0  0  0  0  0  0  0  0  0  0  0
   33.6717   39.5652   24.9268 N   0  0  0  0  0  0  0  0  0  0  0  0
   37.7595   36.7642   15.5101 C   0  0  0  0  0  0  0  0  0  0  0  0
   38.3816   37.2891   14.4545 F   0  0  0  0  0  0  0  0  0  0  0  0
   31.2405   38.3633   25.3084 H   0  0  0  0  0  0  0  0  0  0  0  0
   31.2759   39.9926   26.0639 H   0  0  0  0  0  0  0  0  0  0  0  0
   29.9979   38.4304   27.4873 H   0  0  0  0  0  0  0  0  0  0  0  0
   31.3913   37.2976   27.5322 H   0  0  0  0  0  0  0  0  0  0  0  0
   33.3543   37.9224   28.7161 H   0  0  0  0  0  0  0  0  0  0  0  0
   33.4045   39.5129   29.5494 H   0  0  0  0  0  0  0  0  0  0  0  0
   33.4222   40.6831   27.3715 H   0  0  0  0  0  0  0  0  0  0  0  0
   34.7743   39.5030   27.4494 H   0  0  0  0  0  0  0  0  0  0  0  0
   39.3709   37.0840   16.9434 H   0  0  0  0  0  0  0  0  0  0  0  0
   33.4820   37.8789   26.1529 H   0  0  0  0  0  0  0  0  0  0  0  0
   33.7886   37.8932   21.0222 H   0  0  0  0  0  0  0  0  0  0  0  0
   35.6644   37.6998   19.4174 H   0  0  0  0  0  0  0  0  0  0  0  0
   35.9198   36.2155   14.4784 H   0  0  0  0  0  0  0  0  0  0  0  0
   34.7865   35.2407   16.4349 H   0  0  0  0  0  0  0  0  0  0  0  0
   35.1976   39.8294   20.8033 H   0  0  0  0  0  0  0  0  0  0  0  0
   33.4566   35.4988   24.3101 H   0  0  0  0  0  0  0  0  0  0  0  0
   32.7402   34.3349   23.1446 H   0  0  0  0  0  0  0  0  0  0  0  0
   34.4045   34.0728   23.7675 H   0  0  0  0  0  0  0  0  0  0  0  0
   36.4012   34.2676   19.3759 H   0  0  0  0  0  0  0  0  0  0  0  0
   34.8298   34.4687   18.5292 H   0  0  0  0  0  0  0  0  0  0  0  0
  1  2  1  0  0  0  0
  1 10  1  0  0  0  0
  2  6  1  0  0  0  0
  3  4  1  0  0  0  0
  3  6  1  0  0  0  0
  4 10  1  0  0  0  0
  5  8  2  0  0  0  0
  5 27  1  0  0  0  0
  7 17  1  0  0  0  0
  7 23  2  0  0  0  0
  7 24  1  0  0  0  0
  8 18  1  0  0  0  0
  8 20  1  0  0  0  0
  9 22  1  0  0  0  0
  9 25  1  0  0  0  0
  9 26  2  0  0  0  0
 10 26  1  0  0  0  0
 11 12  1  0  0  0  0
 11 15  1  0  0  0  0
 11 16  1  0  0  0  0
 12 17  2  0  0  0  0
 13 14  1  0  0  0  0
 13 27  2  0  0  0  0
 14 18  2  0  0  0  0
 15 24  1  0  0  0  0
 15 25  2  0  0  0  0
 16 22  2  0  0  0  0
 17 21  1  0  0  0  0
 18 21  1  0  0  0  0
 19 24  1  0  0  0  0
 27 28  1  0  0  0  0
  1 29  1  0  0  0  0
  1 30  1  0  0  0  0
  2 31  1  0  0  0  0
  2 32  1  0  0  0  0
  3 33  1  0  0  0  0
  3 34  1  0  0  0  0
  4 35  1  0  0  0  0
  4 36  1  0  0  0  0
  5 37  1  0  0  0  0
 10 38  1  0  0  0  0
 11 39  1  0  0  0  0
 12 40  1  0  0  0  0
 13 41  1  0  0  0  0
 14 42  1  0  0  0  0
 16 43  1  0  0  0  0
 19 44  1  0  0  0  0
 19 45  1  0  0  0  0
 19 46  1  0  0  0  0
 21 47  1  0  0  0  0
 21 48  1  0  0  0  0
M  END
> <r_user_dG.exp>
-10.081

$$$$
