p38a_2gg
  -OEChem-05162309453D
 Structure written by MMmdl.
 48 51  0     0  0  0  0  0  0999 V2000
   38.2632   36.7144   17.0134 C   0  0  0  0  0  0  0  0  0  0  0  0
   34.5448   34.9770   21.1828 C   0  0  0  0  0  0  0  0  0  0  0  0
   37.5969   36.1886   18.1373 C   0  0  0  0  0  0  0  0  0  0  0  0
   34.0445   38.9756   23.7378 C   0  0  0  0  0  0  0  0  0  0  0  0
   34.8025   37.8108   21.4407 C   0  0  0  0  0  0  0  0  0  0  0  0
   35.2536   37.1252   20.2344 C   0  0  0  0  0  0  0  0  0  0  0  0
   37.6232   36.7427   15.7594 C   0  0  0  0  0  0  0  0  0  0  0  0
   36.3272   36.2163   15.6228 C   0  0  0  0  0  0  0  0  0  0  0  0
   35.6719   35.6684   16.7395 C   0  0  0  0  0  0  0  0  0  0  0  0
   34.3067   37.0366   22.5109 C   0  0  0  0  0  0  0  0  0  0  0  0
   34.8522   39.2088   21.6169 C   0  0  0  0  0  0  0  0  0  0  0  0
   35.1646   35.7815   20.1251 C   0  0  0  0  0  0  0  0  0  0  0  0
   36.2931   35.6640   18.0028 C   0  0  0  0  0  0  0  0  0  0  0  0
   33.6690   34.8315   23.4618 C   0  0  0  0  0  0  0  0  0  0  0  0
   38.1961   36.1968   19.3280 F   0  0  0  0  0  0  0  0  0  0  0  0
   35.6498   35.0616   19.0536 O   0  0  0  0  0  0  0  0  0  0  0  0
   34.4789   39.7925   22.7772 N   0  0  0  0  0  0  0  0  0  0  0  0
   34.3290   33.7761   21.0235 O   0  0  0  0  0  0  0  0  0  0  0  0
   34.2121   35.6181   22.3415 N   0  0  0  0  0  0  0  0  0  0  0  0
   33.9306   37.6499   23.6560 N   0  0  0  0  0  0  0  0  0  0  0  0
   33.6717   39.5652   24.9268 N   0  0  0  0  0  0  0  0  0  0  0  0
   38.2365   37.2743   14.7019 F   0  0  0  0  0  0  0  0  0  0  0  0
   32.3005   38.7924   28.3926 C   0  0  0  0  0  0  0  0  0  0  0  0
   32.8106   39.6388   27.2153 C   0  0  0  0  0  0  0  0  0  0  0  0
   33.1506   38.7518   26.0069 C   0  0  0  0  0  0  0  0  0  0  0  0
   34.1728   37.6694   26.3893 C   0  0  0  0  0  0  0  0  0  0  0  0
   33.6627   36.8230   27.5666 C   0  0  0  0  0  0  0  0  0  0  0  0
   33.3316   37.7073   28.7960 S   0  0  0  0  0  0  0  0  0  0  0  0
   34.5778   38.3960   29.2065 O   0  0  0  0  0  0  0  0  0  0  0  0
   32.7013   36.8428   29.8209 O   0  0  0  0  0  0  0  0  0  0  0  0
   39.2681   37.0971   17.1136 H   0  0  0  0  0  0  0  0  0  0  0  0
   35.6644   37.6998   19.4174 H   0  0  0  0  0  0  0  0  0  0  0  0
   35.8354   36.2327   14.6614 H   0  0  0  0  0  0  0  0  0  0  0  0
   34.6837   35.2474   16.6272 H   0  0  0  0  0  0  0  0  0  0  0  0
   35.1976   39.8294   20.8033 H   0  0  0  0  0  0  0  0  0  0  0  0
   33.4566   35.4988   24.3101 H   0  0  0  0  0  0  0  0  0  0  0  0
   32.7402   34.3349   23.1446 H   0  0  0  0  0  0  0  0  0  0  0  0
   34.4045   34.0728   23.7675 H   0  0  0  0  0  0  0  0  0  0  0  0
   34.4803   40.0339   25.2826 H   0  0  0  0  0  0  0  0  0  0  0  0
   32.1179   39.4510   29.2545 H   0  0  0  0  0  0  0  0  0  0  0  0
   31.3603   38.3020   28.1002 H   0  0  0  0  0  0  0  0  0  0  0  0
   32.0311   40.3587   26.9253 H   0  0  0  0  0  0  0  0  0  0  0  0
   33.7141   40.1828   27.5280 H   0  0  0  0  0  0  0  0  0  0  0  0
   32.2280   38.2525   25.6758 H   0  0  0  0  0  0  0  0  0  0  0  0
   34.3444   37.0141   25.5226 H   0  0  0  0  0  0  0  0  0  0  0  0
   35.1183   38.1526   26.6765 H   0  0  0  0  0  0  0  0  0  0  0  0
   32.7536   36.2877   27.2553 H   0  0  0  0  0  0  0  0  0  0  0  0
   34.4386   36.0956   27.8473 H   0  0  0  0  0  0  0  0  0  0  0  0
  1  3  2  0  0  0  0
  1  7  1  0  0  0  0
  2 12  1  0  0  0  0
  2 18  2  0  0  0  0
  2 19  1  0  0  0  0
  3 13  1  0  0  0  0
  3 15  1  0  0  0  0
  4 17  2  0  0  0  0
  4 20  1  0  0  0  0
  4 21  1  0  0  0  0
  5  6  1  0  0  0  0
  5 10  1  0  0  0  0
  5 11  2  0  0  0  0
  6 12  2  0  0  0  0
  7  8  2  0  0  0  0
  7 22  1  0  0  0  0
  8  9  1  0  0  0  0
  9 13  2  0  0  0  0
 10 19  1  0  0  0  0
 10 20  2  0  0  0  0
 11 17  1  0  0  0  0
 12 16  1  0  0  0  0
 13 16  1  0  0  0  0
 14 19  1  0  0  0  0
 21 25  1  0  0  0  0
 23 24  1  0  0  0  0
 23 28  1  0  0  0  0
 24 25  1  0  0  0  0
 25 26  1  0  0  0  0
 26 27  1  0  0  0  0
 27 28  1  0  0  0  0
 28 29  2  0  0  0  0
 28 30  2  0  0  0  0
  1 31  1  0  0  0  0
  6 32  1  0  0  0  0
  8 33  1  0  0  0  0
  9 34  1  0  0  0  0
 11 35  1  0  0  0  0
 14 36  1  0  0  0  0
 14 37  1  0  0  0  0
 14 38  1  0  0  0  0
 21 39  1  0  0  0  0
 23 40  1  0  0  0  0
 23 41  1  0  0  0  0
 24 42  1  0  0  0  0
 24 43  1  0  0  0  0
 25 44  1  0  0  0  0
 26 45  1  0  0  0  0
 26 46  1  0  0  0  0
 27 47  1  0  0  0  0
 27 48  1  0  0  0  0
M  END
> <r_user_dG.exp>
-10.661

$$$$
p38a_2gg
  -OEChem-05162309453D
 Structure written by MMmdl.
 48 51  0     0  0  0  0  0  0999 V2000
   38.2632   36.7144   17.0134 C   0  0  0  0  0  0  0  0  0  0  0  0
   34.5448   34.9770   21.1828 C   0  0  0  0  0  0  0  0  0  0  0  0
   37.5969   36.1886   18.1373 C   0  0  0  0  0  0  0  0  0  0  0  0
   34.0445   38.9756   23.7378 C   0  0  0  0  0  0  0  0  0  0  0  0
   34.8025   37.8108   21.4407 C   0  0  0  0  0  0  0  0  0  0  0  0
   35.2536   37.1252   20.2344 C   0  0  0  0  0  0  0  0  0  0  0  0
   37.6232   36.7427   15.7594 C   0  0  0  0  0  0  0  0  0  0  0  0
   36.3272   36.2163   15.6228 C   0  0  0  0  0  0  0  0  0  0  0  0
   35.6719   35.6684   16.7395 C   0  0  0  0  0  0  0  0  0  0  0  0
   34.3067   37.0366   22.5109 C   0  0  0  0  0  0  0  0  0  0  0  0
   34.8522   39.2088   21.6169 C   0  0  0  0  0  0  0  0  0  0  0  0
   35.1646   35.7815   20.1251 C   0  0  0  0  0  0  0  0  0  0  0  0
   36.2931   35.6640   18.0028 C   0  0  0  0  0  0  0  0  0  0  0  0
   33.6690   34.8315   23.4618 C   0  0  0  0  0  0  0  0  0  0  0  0
   38.1961   36.1968   19.3280 F   0  0  0  0  0  0  0  0  0  0  0  0
   35.6498   35.0616   19.0536 O   0  0  0  0  0  0  0  0  0  0  0  0
   34.4789   39.7925   22.7772 N   0  0  0  0  0  0  0  0  0  0  0  0
   34.3290   33.7761   21.0235 O   0  0  0  0  0  0  0  0  0  0  0  0
   34.2121   35.6181   22.3415 N   0  0  0  0  0  0  0  0  0  0  0  0
   33.9306   37.6499   23.6560 N   0  0  0  0  0  0  0  0  0  0  0  0
   33.6717   39.5652   24.9268 N   0  0  0  0  0  0  0  0  0  0  0  0
   38.2365   37.2743   14.7019 F   0  0  0  0  0  0  0  0  0  0  0  0
   32.3005   38.7924   28.3926 C   0  0  0  0  0  0  0  0  0  0  0  0
   32.8106   39.6388   27.2153 C   0  0  0  0  0  0  0  0  0  0  0  0
   33.1506   38.7518   26.0069 C   0  0  0  0  0  0  0  0  0  0  0  0
   34.1728   37.6694   26.3893 C   0  0  0  0  0  0  0  0  0  0  0  0
   33.6627   36.8230   27.5666 C   0  0  0  0  0  0  0  0  0  0  0  0
   33.3316   37.7073   28.7960 S   0  0  0  0  0  0  0  0  0  0  0  0
   34.5778   38.3960   29.2065 O   0  0  0  0  0  0  0  0  0  0  0  0
   32.7013   36.8428   29.8209 O   0  0  0  0  0  0  0  0  0  0  0  0
   39.2681   37.0971   17.1136 H   0  0  0  0  0  0  0  0  0  0  0  0
   35.6644   37.6998   19.4174 H   0  0  0  0  0  0  0  0  0  0  0  0
   35.8354   36.2327   14.6614 H   0  0  0  0  0  0  0  0  0  0  0  0
   34.6837   35.2474   16.6272 H   0  0  0  0  0  0  0  0  0  0  0  0
   35.1976   39.8294   20.8033 H   0  0  0  0  0  0  0  0  0  0  0  0
   33.4566   35.4988   24.3101 H   0  0  0  0  0  0  0  0  0  0  0  0
   32.7402   34.3349   23.1446 H   0  0  0  0  0  0  0  0  0  0  0  0
   34.4045   34.0728   23.7675 H   0  0  0  0  0  0  0  0  0  0  0  0
   33.5744   37.1199   24.4255 H   0  0  0  0  0  0  0  0  0  0  0  0
   32.1179   39.4510   29.2545 H   0  0  0  0  0  0  0  0  0  0  0  0
   31.3603   38.3020   28.1002 H   0  0  0  0  0  0  0  0  0  0  0  0
   32.0311   40.3587   26.9253 H   0  0  0  0  0  0  0  0  0  0  0  0
   33.7141   40.1828   27.5280 H   0  0  0  0  0  0  0  0  0  0  0  0
   32.2280   38.2525   25.6758 H   0  0  0  0  0  0  0  0  0  0  0  0
   34.3444   37.0141   25.5226 H   0  0  0  0  0  0  0  0  0  0  0  0
   35.1183   38.1526   26.6765 H   0  0  0  0  0  0  0  0  0  0  0  0
   32.7536   36.2877   27.2553 H   0  0  0  0  0  0  0  0  0  0  0  0
   34.4386   36.0956   27.8473 H   0  0  0  0  0  0  0  0  0  0  0  0
  1  3  2  0  0  0  0
  1  7  1  0  0  0  0
  2 12  1  0  0  0  0
  2 18  2  0  0  0  0
  2 19  1  0  0  0  0
  3 13  1  0  0  0  0
  3 15  1  0  0  0  0
  4 17  1  0  0  0  0
  4 20  1  0  0  0  0
  4 21  2  0  0  0  0
  5  6  1  0  0  0  0
  5 10  2  0  0  0  0
  5 11  1  0  0  0  0
  6 12  2  0  0  0  0
  7  8  2  0  0  0  0
  7 22  1  0  0  0  0
  8  9  1  0  0  0  0
  9 13  2  0  0  0  0
 10 19  1  0  0  0  0
 10 20  1  0  0  0  0
 11 17  2  0  0  0  0
 12 16  1  0  0  0  0
 13 16  1  0  0  0  0
 14 19  1  0  0  0  0
 21 25  1  0  0  0  0
 23 24  1  0  0  0  0
 23 28  1  0  0  0  0
 24 25  1  0  0  0  0
 25 26  1  0  0  0  0
 26 27  1  0  0  0  0
 27 28  1  0  0  0  0
 28 29  2  0  0  0  0
 28 30  2  0  0  0  0
  1 31  1  0  0  0  0
  6 32  1  0  0  0  0
  8 33  1  0  0  0  0
  9 34  1  0  0  0  0
 11 35  1  0  0  0  0
 14 36  1  0  0  0  0
 14 37  1  0  0  0  0
 14 38  1  0  0  0  0
 20 39  1  0  0  0  0
 23 40  1  0  0  0  0
 23 41  1  0  0  0  0
 24 42  1  0  0  0  0
 24 43  1  0  0  0  0
 25 44  1  0  0  0  0
 26 45  1  0  0  0  0
 26 46  1  0  0  0  0
 27 47  1  0  0  0  0
 27 48  1  0  0  0  0
M  END
> <r_user_dG.exp>
-10.661

$$$$
p38a_2gg
  -OEChem-05162309453D
 Structure written by MMmdl.
 48 51  0     0  0  0  0  0  0999 V2000
   38.2632   36.7144   17.0134 C   0  0  0  0  0  0  0  0  0  0  0  0
   34.5448   34.9770   21.1828 C   0  0  0  0  0  0  0  0  0  0  0  0
   37.5969   36.1886   18.1373 C   0  0  0  0  0  0  0  0  0  0  0  0
   34.0445   38.9756   23.7378 C   0  0  0  0  0  0  0  0  0  0  0  0
   34.8025   37.8108   21.4407 C   0  0  0  0  0  0  0  0  0  0  0  0
   35.2536   37.1252   20.2344 C   0  0  0  0  0  0  0  0  0  0  0  0
   37.6232   36.7427   15.7594 C   0  0  0  0  0  0  0  0  0  0  0  0
   36.3272   36.2163   15.6228 C   0  0  0  0  0  0  0  0  0  0  0  0
   35.6719   35.6684   16.7395 C   0  0  0  0  0  0  0  0  0  0  0  0
   34.3067   37.0366   22.5109 C   0  0  0  0  0  0  0  0  0  0  0  0
   34.8522   39.2088   21.6169 C   0  0  0  0  0  0  0  0  0  0  0  0
   35.1646   35.7815   20.1251 C   0  0  0  0  0  0  0  0  0  0  0  0
   36.2931   35.6640   18.0028 C   0  0  0  0  0  0  0  0  0  0  0  0
   33.6690   34.8315   23.4618 C   0  0  0  0  0  0  0  0  0  0  0  0
   38.1961   36.1968   19.3280 F   0  0  0  0  0  0  0  0  0  0  0  0
   35.6498   35.0616   19.0536 O   0  0  0  0  0  0  0  0  0  0  0  0
   34.4789   39.7925   22.7772 N   0  0  0  0  0  0  0  0  0  0  0  0
   34.3290   33.7761   21.0235 O   0  0  0  0  0  0  0  0  0  0  0  0
   34.2121   35.6181   22.3415 N   0  0  0  0  0  0  0  0  0  0  0  0
   33.9306   37.6499   23.6560 N   0  0  0  0  0  0  0  0  0  0  0  0
   33.6717   39.5652   24.9268 N   0  0  0  0  0  0  0  0  0  0  0  0
   38.2365   37.2743   14.7019 F   0  0  0  0  0  0  0  0  0  0  0  0
   32.3005   38.7924   28.3926 C   0  0  0  0  0  0  0  0  0  0  0  0
   32.8106   39.6388   27.2153 C   0  0  0  0  0  0  0  0  0  0  0  0
   33.1506   38.7518   26.0069 C   0  0  0  0  0  0  0  0  0  0  0  0
   34.1728   37.6694   26.3893 C   0  0  0  0  0  0  0  0  0  0  0  0
   33.6627   36.8230   27.5666 C   0  0  0  0  0  0  0  0  0  0  0  0
   33.3316   37.7073   28.7960 S   0  0  0  0  0  0  0  0  0  0  0  0
   34.5778   38.3960   29.2065 O   0  0  0  0  0  0  0  0  0  0  0  0
   32.7013   36.8428   29.8209 O   0  0  0  0  0  0  0  0  0  0  0  0
   39.2681   37.0971   17.1136 H   0  0  0  0  0  0  0  0  0  0  0  0
   35.6644   37.6998   19.4174 H   0  0  0  0  0  0  0  0  0  0  0  0
   35.8354   36.2327   14.6614 H   0  0  0  0  0  0  0  0  0  0  0  0
   34.6837   35.2474   16.6272 H   0  0  0  0  0  0  0  0  0  0  0  0
   35.1976   39.8294   20.8033 H   0  0  0  0  0  0  0  0  0  0  0  0
   33.4566   35.4988   24.3101 H   0  0  0  0  0  0  0  0  0  0  0  0
   32.7402   34.3349   23.1446 H   0  0  0  0  0  0  0  0  0  0  0  0
   34.4045   34.0728   23.7675 H   0  0  0  0  0  0  0  0  0  0  0  0
   34.5258   40.7827   22.9084 H   0  0  0  0  0  0  0  0  0  0  0  0
   32.1179   39.4510   29.2545 H   0  0  0  0  0  0  0  0  0  0  0  0
   31.3603   38.3020   28.1002 H   0  0  0  0  0  0  0  0  0  0  0  0
   32.0311   40.3587   26.9253 H   0  0  0  0  0  0  0  0  0  0  0  0
   33.7141   40.1828   27.5280 H   0  0  0  0  0  0  0  0  0  0  0  0
   32.2280   38.2525   25.6758 H   0  0  0  0  0  0  0  0  0  0  0  0
   34.3444   37.0141   25.5226 H   0  0  0  0  0  0  0  0  0  0  0  0
   35.1183   38.1526   26.6765 H   0  0  0  0  0  0  0  0  0  0  0  0
   32.7536   36.2877   27.2553 H   0  0  0  0  0  0  0  0  0  0  0  0
   34.4386   36.0956   27.8473 H   0  0  0  0  0  0  0  0  0  0  0  0
  1  3  2  0  0  0  0
  1  7  1  0  0  0  0
  2 12  1  0  0  0  0
  2 18  2  0  0  0  0
  2 19  1  0  0  0  0
  3 13  1  0  0  0  0
  3 15  1  0  0  0  0
  4 17  1  0  0  0  0
  4 20  1  0  0  0  0
  4 21  2  0  0  0  0
  5  6  1  0  0  0  0
  5 10  1  0  0  0  0
  5 11  2  0  0  0  0
  6 12  2  0  0  0  0
  7  8  2  0  0  0  0
  7 22  1  0  0  0  0
  8  9  1  0  0  0  0
  9 13  2  0  0  0  0
 10 19  1  0  0  0  0
 10 20  2  0  0  0  0
 11 17  1  0  0  0  0
 12 16  1  0  0  0  0
 13 16  1  0  0  0  0
 14 19  1  0  0  0  0
 21 25  1  0  0  0  0
 23 24  1  0  0  0  0
 23 28  1  0  0  0  0
 24 25  1  0  0  0  0
 25 26  1  0  0  0  0
 26 27  1  0  0  0  0
 27 28  1  0  0  0  0
 28 29  2  0  0  0  0
 28 30  2  0  0  0  0
  1 31  1  0  0  0  0
  6 32  1  0  0  0  0
  8 33  1  0  0  0  0
  9 34  1  0  0  0  0
 11 35  1  0  0  0  0
 14 36  1  0  0  0  0
 14 37  1  0  0  0  0
 14 38  1  0  0  0  0
 17 39  1  0  0  0  0
 23 40  1  0  0  0  0
 23 41  1  0  0  0  0
 24 42  1  0  0  0  0
 24 43  1  0  0  0  0
 25 44  1  0  0  0  0
 26 45  1  0  0  0  0
 26 46  1  0  0  0  0
 27 47  1  0  0  0  0
 27 48  1  0  0  0  0
M  END
> <r_user_dG.exp>
-10.661

$$$$
p38a_2gg
  -OEChem-05162309453D
 Structure written by MMmdl.
 48 51  0     0  0  0  0  0  0999 V2000
   38.2632   36.7144   17.0134 C   0  0  0  0  0  0  0  0  0  0  0  0
   34.5448   34.9770   21.1828 C   0  0  0  0  0  0  0  0  0  0  0  0
   37.5969   36.1886   18.1373 C   0  0  0  0  0  0  0  0  0  0  0  0
   34.0445   38.9756   23.7378 C   0  0  0  0  0  0  0  0  0  0  0  0
   34.8025   37.8108   21.4407 C   0  0  0  0  0  0  0  0  0  0  0  0
   35.2536   37.1252   20.2344 C   0  0  0  0  0  0  0  0  0  0  0  0
   37.6232   36.7427   15.7594 C   0  0  0  0  0  0  0  0  0  0  0  0
   36.3272   36.2163   15.6228 C   0  0  0  0  0  0  0  0  0  0  0  0
   35.6719   35.6684   16.7395 C   0  0  0  0  0  0  0  0  0  0  0  0
   34.3067   37.0366   22.5109 C   0  0  0  0  0  0  0  0  0  0  0  0
   34.8522   39.2088   21.6169 C   0  0  0  0  0  0  0  0  0  0  0  0
   35.1646   35.7815   20.1251 C   0  0  0  0  0  0  0  0  0  0  0  0
   36.2931   35.6640   18.0028 C   0  0  0  0  0  0  0  0  0  0  0  0
   33.6690   34.8315   23.4618 C   0  0  0  0  0  0  0  0  0  0  0  0
   38.1961   36.1968   19.3280 F   0  0  0  0  0  0  0  0  0  0  0  0
   35.6498   35.0616   19.0536 O   0  0  0  0  0  0  0  0  0  0  0  0
   34.4789   39.7925   22.7772 N   0  0  0  0  0  0  0  0  0  0  0  0
   34.3290   33.7761   21.0235 O   0  0  0  0  0  0  0  0  0  0  0  0
   34.2121   35.6181   22.3415 N   0  0  0  0  0  0  0  0  0  0  0  0
   33.9306   37.6499   23.6560 N   0  0  0  0  0  0  0  0  0  0  0  0
   33.6717   39.5652   24.9268 N   0  0  0  0  0  0  0  0  0  0  0  0
   38.2365   37.2743   14.7019 F   0  0  0  0  0  0  0  0  0  0  0  0
   32.3005   38.7924   28.3926 C   0  0  0  0  0  0  0  0  0  0  0  0
   32.8106   39.6388   27.2153 C   0  0  0  0  0  0  0  0  0  0  0  0
   33.1506   38.7518   26.0069 C   0  0  0  0  0  0  0  0  0  0  0  0
   34.1728   37.6694   26.3893 C   0  0  0  0  0  0  0  0  0  0  0  0
   33.6627   36.8230   27.5666 C   0  0  0  0  0  0  0  0  0  0  0  0
   33.3316   37.7073   28.7960 S   0  0  0  0  0  0  0  0  0  0  0  0
   34.5778   38.3960   29.2065 O   0  0  0  0  0  0  0  0  0  0  0  0
   32.7013   36.8428   29.8209 O   0  0  0  0  0  0  0  0  0  0  0  0
   39.2681   37.0971   17.1136 H   0  0  0  0  0  0  0  0  0  0  0  0
   35.6644   37.6998   19.4174 H   0  0  0  0  0  0  0  0  0  0  0  0
   35.8354   36.2327   14.6614 H   0  0  0  0  0  0  0  0  0  0  0  0
   34.6837   35.2474   16.6272 H   0  0  0  0  0  0  0  0  0  0  0  0
   35.1976   39.8294   20.8033 H   0  0  0  0  0  0  0  0  0  0  0  0
   33.4566   35.4988   24.3101 H   0  0  0  0  0  0  0  0  0  0  0  0
   32.7402   34.3349   23.1446 H   0  0  0  0  0  0  0  0  0  0  0  0
   34.4045   34.0728   23.7675 H   0  0  0  0  0  0  0  0  0  0  0  0
   33.9261   33.4197   21.8065 H   0  0  0  0  0  0  0  0  0  0  0  0
   32.1179   39.4510   29.2545 H   0  0  0  0  0  0  0  0  0  0  0  0
   31.3603   38.3020   28.1002 H   0  0  0  0  0  0  0  0  0  0  0  0
   32.0311   40.3587   26.9253 H   0  0  0  0  0  0  0  0  0  0  0  0
   33.7141   40.1828   27.5280 H   0  0  0  0  0  0  0  0  0  0  0  0
   32.2280   38.2525   25.6758 H   0  0  0  0  0  0  0  0  0  0  0  0
   34.3444   37.0141   25.5226 H   0  0  0  0  0  0  0  0  0  0  0  0
   35.1183   38.1526   26.6765 H   0  0  0  0  0  0  0  0  0  0  0  0
   32.7536   36.2877   27.2553 H   0  0  0  0  0  0  0  0  0  0  0  0
   34.4386   36.0956   27.8473 H   0  0  0  0  0  0  0  0  0  0  0  0
  1  3  2  0  0  0  0
  1  7  1  0  0  0  0
  2 12  2  0  0  0  0
  2 18  1  0  0  0  0
  2 19  1  0  0  0  0
  3 13  1  0  0  0  0
  3 15  1  0  0  0  0
  4 17  1  0  0  0  0
  4 20  1  0  0  0  0
  4 21  2  0  0  0  0
  5  6  2  0  0  0  0
  5 10  1  0  0  0  0
  5 11  1  0  0  0  0
  6 12  1  0  0  0  0
  7  8  2  0  0  0  0
  7 22  1  0  0  0  0
  8  9  1  0  0  0  0
  9 13  2  0  0  0  0
 10 19  1  0  0  0  0
 10 20  2  0  0  0  0
 11 17  2  0  0  0  0
 12 16  1  0  0  0  0
 13 16  1  0  0  0  0
 14 19  1  0  0  0  0
 21 25  1  0  0  0  0
 23 24  1  0  0  0  0
 23 28  1  0  0  0  0
 24 25  1  0  0  0  0
 25 26  1  0  0  0  0
 26 27  1  0  0  0  0
 27 28  1  0  0  0  0
 28 29  2  0  0  0  0
 28 30  2  0  0  0  0
  1 31  1  0  0  0  0
  6 32  1  0  0  0  0
  8 33  1  0  0  0  0
  9 34  1  0  0  0  0
 11 35  1  0  0  0  0
 14 36  1  0  0  0  0
 14 37  1  0  0  0  0
 14 38  1  0  0  0  0
 18 39  1  0  0  0  0
 23 40  1  0  0  0  0
 23 41  1  0  0  0  0
 24 42  1  0  0  0  0
 24 43  1  0  0  0  0
 25 44  1  0  0  0  0
 26 45  1  0  0  0  0
 26 46  1  0  0  0  0
 27 47  1  0  0  0  0
 27 48  1  0  0  0  0
M  END
> <r_user_dG.exp>
-10.661

$$$$
p38a_2gg
  -OEChem-05162309453D
 Structure written by MMmdl.
 48 51  0     1  0  0  0  0  0999 V2000
   38.2632   36.7144   17.0134 C   0  0  0  0  0  0  0  0  0  0  0  0
   34.5448   34.9770   21.1828 C   0  0  0  0  0  0  0  0  0  0  0  0
   37.5969   36.1886   18.1373 C   0  0  0  0  0  0  0  0  0  0  0  0
   34.0445   38.9756   23.7378 C   0  0  0  0  0  0  0  0  0  0  0  0
   34.8025   37.8108   21.4407 C   0  0  3  0  0  0  0  0  0  0  0  0
   35.2536   37.1252   20.2344 C   0  0  0  0  0  0  0  0  0  0  0  0
   37.6232   36.7427   15.7594 C   0  0  0  0  0  0  0  0  0  0  0  0
   36.3272   36.2163   15.6228 C   0  0  0  0  0  0  0  0  0  0  0  0
   35.6719   35.6684   16.7395 C   0  0  0  0  0  0  0  0  0  0  0  0
   34.3067   37.0366   22.5109 C   0  0  0  0  0  0  0  0  0  0  0  0
   34.8522   39.2088   21.6169 C   0  0  0  0  0  0  0  0  0  0  0  0
   35.1646   35.7815   20.1251 C   0  0  0  0  0  0  0  0  0  0  0  0
   36.2931   35.6640   18.0028 C   0  0  0  0  0  0  0  0  0  0  0  0
   33.6690   34.8315   23.4618 C   0  0  0  0  0  0  0  0  0  0  0  0
   38.1961   36.1968   19.3280 F   0  0  0  0  0  0  0  0  0  0  0  0
   35.6498   35.0616   19.0536 O   0  0  0  0  0  0  0  0  0  0  0  0
   34.4789   39.7925   22.7772 N   0  0  0  0  0  0  0  0  0  0  0  0
   34.3290   33.7761   21.0235 O   0  0  0  0  0  0  0  0  0  0  0  0
   34.2121   35.6181   22.3415 N   0  0  0  0  0  0  0  0  0  0  0  0
   33.9306   37.6499   23.6560 N   0  0  0  0  0  0  0  0  0  0  0  0
   33.6717   39.5652   24.9268 N   0  0  0  0  0  0  0  0  0  0  0  0
   38.2365   37.2743   14.7019 F   0  0  0  0  0  0  0  0  0  0  0  0
   32.3005   38.7924   28.3926 C   0  0  0  0  0  0  0  0  0  0  0  0
   32.8106   39.6388   27.2153 C   0  0  0  0  0  0  0  0  0  0  0  0
   33.1506   38.7518   26.0069 C   0  0  0  0  0  0  0  0  0  0  0  0
   34.1728   37.6694   26.3893 C   0  0  0  0  0  0  0  0  0  0  0  0
   33.6627   36.8230   27.5666 C   0  0  0  0  0  0  0  0  0  0  0  0
   33.3316   37.7073   28.7960 S   0  0  0  0  0  0  0  0  0  0  0  0
   34.5778   38.3960   29.2065 O   0  0  0  0  0  0  0  0  0  0  0  0
   32.7013   36.8428   29.8209 O   0  0  0  0  0  0  0  0  0  0  0  0
   39.2681   37.0971   17.1136 H   0  0  0  0  0  0  0  0  0  0  0  0
   33.7886   37.8932   21.0222 H   0  0  0  0  0  0  0  0  0  0  0  0
   35.6644   37.6998   19.4174 H   0  0  0  0  0  0  0  0  0  0  0  0
   35.8354   36.2327   14.6614 H   0  0  0  0  0  0  0  0  0  0  0  0
   34.6837   35.2474   16.6272 H   0  0  0  0  0  0  0  0  0  0  0  0
   35.1976   39.8294   20.8033 H   0  0  0  0  0  0  0  0  0  0  0  0
   33.4566   35.4988   24.3101 H   0  0  0  0  0  0  0  0  0  0  0  0
   32.7402   34.3349   23.1446 H   0  0  0  0  0  0  0  0  0  0  0  0
   34.4045   34.0728   23.7675 H   0  0  0  0  0  0  0  0  0  0  0  0
   32.1179   39.4510   29.2545 H   0  0  0  0  0  0  0  0  0  0  0  0
   31.3603   38.3020   28.1002 H   0  0  0  0  0  0  0  0  0  0  0  0
   32.0311   40.3587   26.9253 H   0  0  0  0  0  0  0  0  0  0  0  0
   33.7141   40.1828   27.5280 H   0  0  0  0  0  0  0  0  0  0  0  0
   32.2280   38.2525   25.6758 H   0  0  0  0  0  0  0  0  0  0  0  0
   34.3444   37.0141   25.5226 H   0  0  0  0  0  0  0  0  0  0  0  0
   35.1183   38.1526   26.6765 H   0  0  0  0  0  0  0  0  0  0  0  0
   32.7536   36.2877   27.2553 H   0  0  0  0  0  0  0  0  0  0  0  0
   34.4386   36.0956   27.8473 H   0  0  0  0  0  0  0  0  0  0  0  0
  1  3  2  0  0  0  0
  1  7  1  0  0  0  0
  2 12  1  0  0  0  0
  2 18  2  0  0  0  0
  2 19  1  0  0  0  0
  3 13  1  0  0  0  0
  3 15  1  0  0  0  0
  4 17  1  0  0  0  0
  4 20  1  0  0  0  0
  4 21  2  0  0  0  0
  5  6  1  0  0  0  0
  5 10  1  0  0  0  0
  5 11  1  0  0  0  0
  6 12  2  0  0  0  0
  7  8  2  0  0  0  0
  7 22  1  0  0  0  0
  8  9  1  0  0  0  0
  9 13  2  0  0  0  0
 10 19  1  0  0  0  0
 10 20  2  0  0  0  0
 11 17  2  0  0  0  0
 12 16  1  0  0  0  0
 13 16  1  0  0  0  0
 14 19  1  0  0  0  0
 21 25  1  0  0  0  0
 23 24  1  0  0  0  0
 23 28  1  0  0  0  0
 24 25  1  0  0  0  0
 25 26  1  0  0  0  0
 26 27  1  0  0  0  0
 27 28  1  0  0  0  0
 28 29  2  0  0  0  0
 28 30  2  0  0  0  0
  1 31  1  0  0  0  0
  5 32  1  0  0  0  0
  6 33  1  0  0  0  0
  8 34  1  0  0  0  0
  9 35  1  0  0  0  0
 11 36  1  0  0  0  0
 14 37  1  0  0  0  0
 14 38  1  0  0  0  0
 14 39  1  0  0  0  0
 23 40  1  0  0  0  0
 23 41  1  0  0  0  0
 24 42  1  0  0  0  0
 24 43  1  0  0  0  0
 25 44  1  0  0  0  0
 26 45  1  0  0  0  0
 26 46  1  0  0  0  0
 27 47  1  0  0  0  0
 27 48  1  0  0  0  0
M  END
> <r_user_dG.exp>
-10.661

$$$$
p38a_2gg
  -OEChem-05162309453D
 Structure written by MMmdl.
 48 51  0     1  0  0  0  0  0999 V2000
   38.2632   36.7144   17.0134 C   0  0  0  0  0  0  0  0  0  0  0  0
   34.5448   34.9770   21.1828 C   0  0  0  0  0  0  0  0  0  0  0  0
   37.5969   36.1886   18.1373 C   0  0  0  0  0  0  0  0  0  0  0  0
   34.0445   38.9756   23.7378 C   0  0  0  0  0  0  0  0  0  0  0  0
   34.8025   37.8108   21.4407 C   0  0  0  0  0  0  0  0  0  0  0  0
   35.2536   37.1252   20.2344 C   0  0  0  0  0  0  0  0  0  0  0  0
   37.6232   36.7427   15.7594 C   0  0  0  0  0  0  0  0  0  0  0  0
   36.3272   36.2163   15.6228 C   0  0  0  0  0  0  0  0  0  0  0  0
   35.6719   35.6684   16.7395 C   0  0  0  0  0  0  0  0  0  0  0  0
   34.3067   37.0366   22.5109 C   0  0  0  0  0  0  0  0  0  0  0  0
   34.8522   39.2088   21.6169 C   0  0  0  0  0  0  0  0  0  0  0  0
   35.1646   35.7815   20.1251 C   0  0  3  0  0  0  0  0  0  0  0  0
   36.2931   35.6640   18.0028 C   0  0  0  0  0  0  0  0  0  0  0  0
   33.6690   34.8315   23.4618 C   0  0  0  0  0  0  0  0  0  0  0  0
   38.1961   36.1968   19.3280 F   0  0  0  0  0  0  0  0  0  0  0  0
   35.6498   35.0616   19.0536 O   0  0  0  0  0  0  0  0  0  0  0  0
   34.4789   39.7925   22.7772 N   0  0  0  0  0  0  0  0  0  0  0  0
   34.3290   33.7761   21.0235 O   0  0  0  0  0  0  0  0  0  0  0  0
   34.2121   35.6181   22.3415 N   0  0  0  0  0  0  0  0  0  0  0  0
   33.9306   37.6499   23.6560 N   0  0  0  0  0  0  0  0  0  0  0  0
   33.6717   39.5652   24.9268 N   0  0  0  0  0  0  0  0  0  0  0  0
   38.2365   37.2743   14.7019 F   0  0  0  0  0  0  0  0  0  0  0  0
   32.3005   38.7924   28.3926 C   0  0  0  0  0  0  0  0  0  0  0  0
   32.8106   39.6388   27.2153 C   0  0  0  0  0  0  0  0  0  0  0  0
   33.1506   38.7518   26.0069 C   0  0  0  0  0  0  0  0  0  0  0  0
   34.1728   37.6694   26.3893 C   0  0  0  0  0  0  0  0  0  0  0  0
   33.6627   36.8230   27.5666 C   0  0  0  0  0  0  0  0  0  0  0  0
   33.3316   37.7073   28.7960 S   0  0  0  0  0  0  0  0  0  0  0  0
   34.5778   38.3960   29.2065 O   0  0  0  0  0  0  0  0  0  0  0  0
   32.7013   36.8428   29.8209 O   0  0  0  0  0  0  0  0  0  0  0  0
   39.2681   37.0971   17.1136 H   0  0  0  0  0  0  0  0  0  0  0  0
   35.6644   37.6998   19.4174 H   0  0  0  0  0  0  0  0  0  0  0  0
   35.8354   36.2327   14.6614 H   0  0  0  0  0  0  0  0  0  0  0  0
   34.6837   35.2474   16.6272 H   0  0  0  0  0  0  0  0  0  0  0  0
   35.1976   39.8294   20.8033 H   0  0  0  0  0  0  0  0  0  0  0  0
   34.1907   35.8815   19.6236 H   0  0  0  0  0  0  0  0  0  0  0  0
   33.4566   35.4988   24.3101 H   0  0  0  0  0  0  0  0  0  0  0  0
   32.7402   34.3349   23.1446 H   0  0  0  0  0  0  0  0  0  0  0  0
   34.4045   34.0728   23.7675 H   0  0  0  0  0  0  0  0  0  0  0  0
   32.1179   39.4510   29.2545 H   0  0  0  0  0  0  0  0  0  0  0  0
   31.3603   38.3020   28.1002 H   0  0  0  0  0  0  0  0  0  0  0  0
   32.0311   40.3587   26.9253 H   0  0  0  0  0  0  0  0  0  0  0  0
   33.7141   40.1828   27.5280 H   0  0  0  0  0  0  0  0  0  0  0  0
   32.2280   38.2525   25.6758 H   0  0  0  0  0  0  0  0  0  0  0  0
   34.3444   37.0141   25.5226 H   0  0  0  0  0  0  0  0  0  0  0  0
   35.1183   38.1526   26.6765 H   0  0  0  0  0  0  0  0  0  0  0  0
   32.7536   36.2877   27.2553 H   0  0  0  0  0  0  0  0  0  0  0  0
   34.4386   36.0956   27.8473 H   0  0  0  0  0  0  0  0  0  0  0  0
  1  3  2  0  0  0  0
  1  7  1  0  0  0  0
  2 12  1  0  0  0  0
  2 18  2  0  0  0  0
  2 19  1  0  0  0  0
  3 13  1  0  0  0  0
  3 15  1  0  0  0  0
  4 17  1  0  0  0  0
  4 20  1  0  0  0  0
  4 21  2  0  0  0  0
  5  6  2  0  0  0  0
  5 10  1  0  0  0  0
  5 11  1  0  0  0  0
  6 12  1  0  0  0  0
  7  8  2  0  0  0  0
  7 22  1  0  0  0  0
  8  9  1  0  0  0  0
  9 13  2  0  0  0  0
 10 19  1  0  0  0  0
 10 20  2  0  0  0  0
 11 17  2  0  0  0  0
 12 16  1  0  0  0  0
 13 16  1  0  0  0  0
 14 19  1  0  0  0  0
 21 25  1  0  0  0  0
 23 24  1  0  0  0  0
 23 28  1  0  0  0  0
 24 25  1  0  0  0  0
 25 26  1  0  0  0  0
 26 27  1  0  0  0  0
 27 28  1  0  0  0  0
 28 29  2  0  0  0  0
 28 30  2  0  0  0  0
  1 31  1  0  0  0  0
  6 32  1  0  0  0  0
  8 33  1  0  0  0  0
  9 34  1  0  0  0  0
 11 35  1  0  0  0  0
 12 36  1  0  0  0  0
 14 37  1  0  0  0  0
 14 38  1  0  0  0  0
 14 39  1  0  0  0  0
 23 40  1  0  0  0  0
 23 41  1  0  0  0  0
 24 42  1  0  0  0  0
 24 43  1  0  0  0  0
 25 44  1  0  0  0  0
 26 45  1  0  0  0  0
 26 46  1  0  0  0  0
 27 47  1  0  0  0  0
 27 48  1  0  0  0  0
M  END
> <r_user_dG.exp>
-10.661

$$$$
