p38a_2x
  -OEChem-05162309453D
 Structure written by MMmdl.
 43 46  0     1  0  0  0  0  0999 V2000
   38.2632   36.7144   17.0134 C   0  0  0  0  0  0  0  0  0  0  0  0
   34.5448   34.9770   21.1828 C   0  0  0  0  0  0  0  0  0  0  0  0
   37.5969   36.1886   18.1373 C   0  0  0  0  0  0  0  0  0  0  0  0
   34.0445   38.9756   23.7378 C   0  0  0  0  0  0  0  0  0  0  0  0
   34.8025   37.8108   21.4407 C   0  0  0  0  0  0  0  0  0  0  0  0
   35.2536   37.1252   20.2344 C   0  0  0  0  0  0  0  0  0  0  0  0
   37.6232   36.7427   15.7594 C   0  0  0  0  0  0  0  0  0  0  0  0
   36.3272   36.2163   15.6228 C   0  0  0  0  0  0  0  0  0  0  0  0
   35.6719   35.6684   16.7395 C   0  0  0  0  0  0  0  0  0  0  0  0
   34.3067   37.0366   22.5109 C   0  0  0  0  0  0  0  0  0  0  0  0
   34.8522   39.2088   21.6169 C   0  0  0  0  0  0  0  0  0  0  0  0
   35.1646   35.7815   20.1251 C   0  0  0  0  0  0  0  0  0  0  0  0
   36.2931   35.6640   18.0028 C   0  0  0  0  0  0  0  0  0  0  0  0
   33.6690   34.8315   23.4618 C   0  0  0  0  0  0  0  0  0  0  0  0
   38.1961   36.1968   19.3280 F   0  0  0  0  0  0  0  0  0  0  0  0
   35.6498   35.0616   19.0536 O   0  0  0  0  0  0  0  0  0  0  0  0
   34.4789   39.7925   22.7772 N   0  0  0  0  0  0  0  0  0  0  0  0
   34.3290   33.7761   21.0235 O   0  0  0  0  0  0  0  0  0  0  0  0
   34.2121   35.6181   22.3415 N   0  0  0  0  0  0  0  0  0  0  0  0
   33.9306   37.6499   23.6560 N   0  0  0  0  0  0  0  0  0  0  0  0
   33.6717   39.5652   24.9268 N   0  0  0  0  0  0  0  0  0  0  0  0
   38.2365   37.2743   14.7019 F   0  0  0  0  0  0  0  0  0  0  0  0
   32.2505   36.7435   25.4774 O   0  0  0  0  0  0  0  0  0  0  0  0
   31.2662   37.8710   25.1390 C   0  0  0  0  0  0  0  0  0  0  0  0
   31.6299   38.9841   26.1241 C   0  0  0  0  0  0  0  0  0  0  0  0
   33.1592   38.9286   26.1346 C   0  0  1  0  0  0  0  0  0  0  0  0
   33.4787   37.4276   26.1047 C   0  0  0  0  0  0  0  0  0  0  0  0
   39.2681   37.0971   17.1136 H   0  0  0  0  0  0  0  0  0  0  0  0
   35.6644   37.6998   19.4174 H   0  0  0  0  0  0  0  0  0  0  0  0
   35.8354   36.2327   14.6614 H   0  0  0  0  0  0  0  0  0  0  0  0
   34.6837   35.2474   16.6272 H   0  0  0  0  0  0  0  0  0  0  0  0
   35.1976   39.8294   20.8033 H   0  0  0  0  0  0  0  0  0  0  0  0
   33.4566   35.4988   24.3101 H   0  0  0  0  0  0  0  0  0  0  0  0
   32.7402   34.3349   23.1446 H   0  0  0  0  0  0  0  0  0  0  0  0
   34.4045   34.0728   23.7675 H   0  0  0  0  0  0  0  0  0  0  0  0
   34.4880   40.0570   25.2296 H   0  0  0  0  0  0  0  0  0  0  0  0
   31.3994   38.2084   24.1005 H   0  0  0  0  0  0  0  0  0  0  0  0
   30.2273   37.5412   25.2870 H   0  0  0  0  0  0  0  0  0  0  0  0
   31.2698   39.9615   25.7705 H   0  0  0  0  0  0  0  0  0  0  0  0
   31.2177   38.7811   27.1235 H   0  0  0  0  0  0  0  0  0  0  0  0
   33.5612   39.3947   27.0463 H   0  0  0  0  0  0  0  0  0  0  0  0
   33.6455   37.0521   27.1251 H   0  0  0  0  0  0  0  0  0  0  0  0
   34.3741   37.2397   25.4940 H   0  0  0  0  0  0  0  0  0  0  0  0
  1  3  2  0  0  0  0
  1  7  1  0  0  0  0
  2 12  1  0  0  0  0
  2 18  2  0  0  0  0
  2 19  1  0  0  0  0
  3 13  1  0  0  0  0
  3 15  1  0  0  0  0
  4 17  2  0  0  0  0
  4 20  1  0  0  0  0
  4 21  1  0  0  0  0
  5  6  1  0  0  0  0
  5 10  1  0  0  0  0
  5 11  2  0  0  0  0
  6 12  2  0  0  0  0
  7  8  2  0  0  0  0
  7 22  1  0  0  0  0
  8  9  1  0  0  0  0
  9 13  2  0  0  0  0
 10 19  1  0  0  0  0
 10 20  2  0  0  0  0
 11 17  1  0  0  0  0
 12 16  1  0  0  0  0
 13 16  1  0  0  0  0
 14 19  1  0  0  0  0
 21 26  1  0  0  0  0
 23 24  1  0  0  0  0
 23 27  1  0  0  0  0
 24 25  1  0  0  0  0
 25 26  1  0  0  0  0
 26 27  1  0  0  0  0
  1 28  1  0  0  0  0
  6 29  1  0  0  0  0
  8 30  1  0  0  0  0
  9 31  1  0  0  0  0
 11 32  1  0  0  0  0
 14 33  1  0  0  0  0
 14 34  1  0  0  0  0
 14 35  1  0  0  0  0
 21 36  1  0  0  0  0
 24 37  1  0  0  0  0
 24 38  1  0  0  0  0
 25 39  1  0  0  0  0
 25 40  1  0  0  0  0
 26 41  1  0  0  0  0
 27 42  1  0  0  0  0
 27 43  1  0  0  0  0
M  END
> <r_user_dG.exp>
-10.232

$$$$
p38a_2x
  -OEChem-05162309453D
 Structure written by MMmdl.
 43 46  0     1  0  0  0  0  0999 V2000
   38.2632   36.7144   17.0134 C   0  0  0  0  0  0  0  0  0  0  0  0
   34.5448   34.9770   21.1828 C   0  0  0  0  0  0  0  0  0  0  0  0
   37.5969   36.1886   18.1373 C   0  0  0  0  0  0  0  0  0  0  0  0
   34.0445   38.9756   23.7378 C   0  0  0  0  0  0  0  0  0  0  0  0
   34.8025   37.8108   21.4407 C   0  0  0  0  0  0  0  0  0  0  0  0
   35.2536   37.1252   20.2344 C   0  0  0  0  0  0  0  0  0  0  0  0
   37.6232   36.7427   15.7594 C   0  0  0  0  0  0  0  0  0  0  0  0
   36.3272   36.2163   15.6228 C   0  0  0  0  0  0  0  0  0  0  0  0
   35.6719   35.6684   16.7395 C   0  0  0  0  0  0  0  0  0  0  0  0
   34.3067   37.0366   22.5109 C   0  0  0  0  0  0  0  0  0  0  0  0
   34.8522   39.2088   21.6169 C   0  0  0  0  0  0  0  0  0  0  0  0
   35.1646   35.7815   20.1251 C   0  0  0  0  0  0  0  0  0  0  0  0
   36.2931   35.6640   18.0028 C   0  0  0  0  0  0  0  0  0  0  0  0
   33.6690   34.8315   23.4618 C   0  0  0  0  0  0  0  0  0  0  0  0
   38.1961   36.1968   19.3280 F   0  0  0  0  0  0  0  0  0  0  0  0
   35.6498   35.0616   19.0536 O   0  0  0  0  0  0  0  0  0  0  0  0
   34.4789   39.7925   22.7772 N   0  0  0  0  0  0  0  0  0  0  0  0
   34.3290   33.7761   21.0235 O   0  0  0  0  0  0  0  0  0  0  0  0
   34.2121   35.6181   22.3415 N   0  0  0  0  0  0  0  0  0  0  0  0
   33.9306   37.6499   23.6560 N   0  0  0  0  0  0  0  0  0  0  0  0
   33.6717   39.5652   24.9268 N   0  0  0  0  0  0  0  0  0  0  0  0
   38.2365   37.2743   14.7019 F   0  0  0  0  0  0  0  0  0  0  0  0
   32.2505   36.7435   25.4774 O   0  0  0  0  0  0  0  0  0  0  0  0
   31.2662   37.8710   25.1390 C   0  0  0  0  0  0  0  0  0  0  0  0
   31.6299   38.9841   26.1241 C   0  0  0  0  0  0  0  0  0  0  0  0
   33.1592   38.9286   26.1346 C   0  0  1  0  0  0  0  0  0  0  0  0
   33.4787   37.4276   26.1047 C   0  0  0  0  0  0  0  0  0  0  0  0
   39.2681   37.0971   17.1136 H   0  0  0  0  0  0  0  0  0  0  0  0
   35.6644   37.6998   19.4174 H   0  0  0  0  0  0  0  0  0  0  0  0
   35.8354   36.2327   14.6614 H   0  0  0  0  0  0  0  0  0  0  0  0
   34.6837   35.2474   16.6272 H   0  0  0  0  0  0  0  0  0  0  0  0
   35.1976   39.8294   20.8033 H   0  0  0  0  0  0  0  0  0  0  0  0
   33.4566   35.4988   24.3101 H   0  0  0  0  0  0  0  0  0  0  0  0
   32.7402   34.3349   23.1446 H   0  0  0  0  0  0  0  0  0  0  0  0
   34.4045   34.0728   23.7675 H   0  0  0  0  0  0  0  0  0  0  0  0
   33.5744   37.1199   24.4255 H   0  0  0  0  0  0  0  0  0  0  0  0
   31.3994   38.2084   24.1005 H   0  0  0  0  0  0  0  0  0  0  0  0
   30.2273   37.5412   25.2870 H   0  0  0  0  0  0  0  0  0  0  0  0
   31.2698   39.9615   25.7705 H   0  0  0  0  0  0  0  0  0  0  0  0
   31.2177   38.7811   27.1235 H   0  0  0  0  0  0  0  0  0  0  0  0
   33.5612   39.3947   27.0463 H   0  0  0  0  0  0  0  0  0  0  0  0
   33.6455   37.0521   27.1251 H   0  0  0  0  0  0  0  0  0  0  0  0
   34.3741   37.2397   25.4940 H   0  0  0  0  0  0  0  0  0  0  0  0
  1  3  2  0  0  0  0
  1  7  1  0  0  0  0
  2 12  1  0  0  0  0
  2 18  2  0  0  0  0
  2 19  1  0  0  0  0
  3 13  1  0  0  0  0
  3 15  1  0  0  0  0
  4 17  1  0  0  0  0
  4 20  1  0  0  0  0
  4 21  2  0  0  0  0
  5  6  1  0  0  0  0
  5 10  2  0  0  0  0
  5 11  1  0  0  0  0
  6 12  2  0  0  0  0
  7  8  2  0  0  0  0
  7 22  1  0  0  0  0
  8  9  1  0  0  0  0
  9 13  2  0  0  0  0
 10 19  1  0  0  0  0
 10 20  1  0  0  0  0
 11 17  2  0  0  0  0
 12 16  1  0  0  0  0
 13 16  1  0  0  0  0
 14 19  1  0  0  0  0
 21 26  1  0  0  0  0
 23 24  1  0  0  0  0
 23 27  1  0  0  0  0
 24 25  1  0  0  0  0
 25 26  1  0  0  0  0
 26 27  1  0  0  0  0
  1 28  1  0  0  0  0
  6 29  1  0  0  0  0
  8 30  1  0  0  0  0
  9 31  1  0  0  0  0
 11 32  1  0  0  0  0
 14 33  1  0  0  0  0
 14 34  1  0  0  0  0
 14 35  1  0  0  0  0
 20 36  1  0  0  0  0
 24 37  1  0  0  0  0
 24 38  1  0  0  0  0
 25 39  1  0  0  0  0
 25 40  1  0  0  0  0
 26 41  1  0  0  0  0
 27 42  1  0  0  0  0
 27 43  1  0  0  0  0
M  END
> <r_user_dG.exp>
-10.232

$$$$
p38a_2x
  -OEChem-05162309453D
 Structure written by MMmdl.
 43 46  0     1  0  0  0  0  0999 V2000
   38.2632   36.7144   17.0134 C   0  0  0  0  0  0  0  0  0  0  0  0
   34.5448   34.9770   21.1828 C   0  0  0  0  0  0  0  0  0  0  0  0
   37.5969   36.1886   18.1373 C   0  0  0  0  0  0  0  0  0  0  0  0
   34.0445   38.9756   23.7378 C   0  0  0  0  0  0  0  0  0  0  0  0
   34.8025   37.8108   21.4407 C   0  0  0  0  0  0  0  0  0  0  0  0
   35.2536   37.1252   20.2344 C   0  0  0  0  0  0  0  0  0  0  0  0
   37.6232   36.7427   15.7594 C   0  0  0  0  0  0  0  0  0  0  0  0
   36.3272   36.2163   15.6228 C   0  0  0  0  0  0  0  0  0  0  0  0
   35.6719   35.6684   16.7395 C   0  0  0  0  0  0  0  0  0  0  0  0
   34.3067   37.0366   22.5109 C   0  0  0  0  0  0  0  0  0  0  0  0
   34.8522   39.2088   21.6169 C   0  0  0  0  0  0  0  0  0  0  0  0
   35.1646   35.7815   20.1251 C   0  0  0  0  0  0  0  0  0  0  0  0
   36.2931   35.6640   18.0028 C   0  0  0  0  0  0  0  0  0  0  0  0
   33.6690   34.8315   23.4618 C   0  0  0  0  0  0  0  0  0  0  0  0
   38.1961   36.1968   19.3280 F   0  0  0  0  0  0  0  0  0  0  0  0
   35.6498   35.0616   19.0536 O   0  0  0  0  0  0  0  0  0  0  0  0
   34.4789   39.7925   22.7772 N   0  0  0  0  0  0  0  0  0  0  0  0
   34.3290   33.7761   21.0235 O   0  0  0  0  0  0  0  0  0  0  0  0
   34.2121   35.6181   22.3415 N   0  0  0  0  0  0  0  0  0  0  0  0
   33.9306   37.6499   23.6560 N   0  0  0  0  0  0  0  0  0  0  0  0
   33.6717   39.5652   24.9268 N   0  0  0  0  0  0  0  0  0  0  0  0
   38.2365   37.2743   14.7019 F   0  0  0  0  0  0  0  0  0  0  0  0
   32.2505   36.7435   25.4774 O   0  0  0  0  0  0  0  0  0  0  0  0
   31.2662   37.8710   25.1390 C   0  0  0  0  0  0  0  0  0  0  0  0
   31.6299   38.9841   26.1241 C   0  0  0  0  0  0  0  0  0  0  0  0
   33.1592   38.9286   26.1346 C   0  0  1  0  0  0  0  0  0  0  0  0
   33.4787   37.4276   26.1047 C   0  0  0  0  0  0  0  0  0  0  0  0
   39.2681   37.0971   17.1136 H   0  0  0  0  0  0  0  0  0  0  0  0
   35.6644   37.6998   19.4174 H   0  0  0  0  0  0  0  0  0  0  0  0
   35.8354   36.2327   14.6614 H   0  0  0  0  0  0  0  0  0  0  0  0
   34.6837   35.2474   16.6272 H   0  0  0  0  0  0  0  0  0  0  0  0
   35.1976   39.8294   20.8033 H   0  0  0  0  0  0  0  0  0  0  0  0
   33.4566   35.4988   24.3101 H   0  0  0  0  0  0  0  0  0  0  0  0
   32.7402   34.3349   23.1446 H   0  0  0  0  0  0  0  0  0  0  0  0
   34.4045   34.0728   23.7675 H   0  0  0  0  0  0  0  0  0  0  0  0
   34.5258   40.7827   22.9084 H   0  0  0  0  0  0  0  0  0  0  0  0
   31.3994   38.2084   24.1005 H   0  0  0  0  0  0  0  0  0  0  0  0
   30.2273   37.5412   25.2870 H   0  0  0  0  0  0  0  0  0  0  0  0
   31.2698   39.9615   25.7705 H   0  0  0  0  0  0  0  0  0  0  0  0
   31.2177   38.7811   27.1235 H   0  0  0  0  0  0  0  0  0  0  0  0
   33.5612   39.3947   27.0463 H   0  0  0  0  0  0  0  0  0  0  0  0
   33.6455   37.0521   27.1251 H   0  0  0  0  0  0  0  0  0  0  0  0
   34.3741   37.2397   25.4940 H   0  0  0  0  0  0  0  0  0  0  0  0
  1  3  2  0  0  0  0
  1  7  1  0  0  0  0
  2 12  1  0  0  0  0
  2 18  2  0  0  0  0
  2 19  1  0  0  0  0
  3 13  1  0  0  0  0
  3 15  1  0  0  0  0
  4 17  1  0  0  0  0
  4 20  1  0  0  0  0
  4 21  2  0  0  0  0
  5  6  1  0  0  0  0
  5 10  1  0  0  0  0
  5 11  2  0  0  0  0
  6 12  2  0  0  0  0
  7  8  2  0  0  0  0
  7 22  1  0  0  0  0
  8  9  1  0  0  0  0
  9 13  2  0  0  0  0
 10 19  1  0  0  0  0
 10 20  2  0  0  0  0
 11 17  1  0  0  0  0
 12 16  1  0  0  0  0
 13 16  1  0  0  0  0
 14 19  1  0  0  0  0
 21 26  1  0  0  0  0
 23 24  1  0  0  0  0
 23 27  1  0  0  0  0
 24 25  1  0  0  0  0
 25 26  1  0  0  0  0
 26 27  1  0  0  0  0
  1 28  1  0  0  0  0
  6 29  1  0  0  0  0
  8 30  1  0  0  0  0
  9 31  1  0  0  0  0
 11 32  1  0  0  0  0
 14 33  1  0  0  0  0
 14 34  1  0  0  0  0
 14 35  1  0  0  0  0
 17 36  1  0  0  0  0
 24 37  1  0  0  0  0
 24 38  1  0  0  0  0
 25 39  1  0  0  0  0
 25 40  1  0  0  0  0
 26 41  1  0  0  0  0
 27 42  1  0  0  0  0
 27 43  1  0  0  0  0
M  END
> <r_user_dG.exp>
-10.232

$$$$
p38a_2x
  -OEChem-05162309453D
 Structure written by MMmdl.
 43 46  0     1  0  0  0  0  0999 V2000
   38.2632   36.7144   17.0134 C   0  0  0  0  0  0  0  0  0  0  0  0
   34.5448   34.9770   21.1828 C   0  0  0  0  0  0  0  0  0  0  0  0
   37.5969   36.1886   18.1373 C   0  0  0  0  0  0  0  0  0  0  0  0
   34.0445   38.9756   23.7378 C   0  0  0  0  0  0  0  0  0  0  0  0
   34.8025   37.8108   21.4407 C   0  0  0  0  0  0  0  0  0  0  0  0
   35.2536   37.1252   20.2344 C   0  0  0  0  0  0  0  0  0  0  0  0
   37.6232   36.7427   15.7594 C   0  0  0  0  0  0  0  0  0  0  0  0
   36.3272   36.2163   15.6228 C   0  0  0  0  0  0  0  0  0  0  0  0
   35.6719   35.6684   16.7395 C   0  0  0  0  0  0  0  0  0  0  0  0
   34.3067   37.0366   22.5109 C   0  0  0  0  0  0  0  0  0  0  0  0
   34.8522   39.2088   21.6169 C   0  0  0  0  0  0  0  0  0  0  0  0
   35.1646   35.7815   20.1251 C   0  0  0  0  0  0  0  0  0  0  0  0
   36.2931   35.6640   18.0028 C   0  0  0  0  0  0  0  0  0  0  0  0
   33.6690   34.8315   23.4618 C   0  0  0  0  0  0  0  0  0  0  0  0
   38.1961   36.1968   19.3280 F   0  0  0  0  0  0  0  0  0  0  0  0
   35.6498   35.0616   19.0536 O   0  0  0  0  0  0  0  0  0  0  0  0
   34.4789   39.7925   22.7772 N   0  0  0  0  0  0  0  0  0  0  0  0
   34.3290   33.7761   21.0235 O   0  0  0  0  0  0  0  0  0  0  0  0
   34.2121   35.6181   22.3415 N   0  0  0  0  0  0  0  0  0  0  0  0
   33.9306   37.6499   23.6560 N   0  0  0  0  0  0  0  0  0  0  0  0
   33.6717   39.5652   24.9268 N   0  0  0  0  0  0  0  0  0  0  0  0
   38.2365   37.2743   14.7019 F   0  0  0  0  0  0  0  0  0  0  0  0
   32.2505   36.7435   25.4774 O   0  0  0  0  0  0  0  0  0  0  0  0
   31.2662   37.8710   25.1390 C   0  0  0  0  0  0  0  0  0  0  0  0
   31.6299   38.9841   26.1241 C   0  0  0  0  0  0  0  0  0  0  0  0
   33.1592   38.9286   26.1346 C   0  0  1  0  0  0  0  0  0  0  0  0
   33.4787   37.4276   26.1047 C   0  0  0  0  0  0  0  0  0  0  0  0
   39.2681   37.0971   17.1136 H   0  0  0  0  0  0  0  0  0  0  0  0
   35.6644   37.6998   19.4174 H   0  0  0  0  0  0  0  0  0  0  0  0
   35.8354   36.2327   14.6614 H   0  0  0  0  0  0  0  0  0  0  0  0
   34.6837   35.2474   16.6272 H   0  0  0  0  0  0  0  0  0  0  0  0
   35.1976   39.8294   20.8033 H   0  0  0  0  0  0  0  0  0  0  0  0
   33.4566   35.4988   24.3101 H   0  0  0  0  0  0  0  0  0  0  0  0
   32.7402   34.3349   23.1446 H   0  0  0  0  0  0  0  0  0  0  0  0
   34.4045   34.0728   23.7675 H   0  0  0  0  0  0  0  0  0  0  0  0
   33.9261   33.4197   21.8065 H   0  0  0  0  0  0  0  0  0  0  0  0
   31.3994   38.2084   24.1005 H   0  0  0  0  0  0  0  0  0  0  0  0
   30.2273   37.5412   25.2870 H   0  0  0  0  0  0  0  0  0  0  0  0
   31.2698   39.9615   25.7705 H   0  0  0  0  0  0  0  0  0  0  0  0
   31.2177   38.7811   27.1235 H   0  0  0  0  0  0  0  0  0  0  0  0
   33.5612   39.3947   27.0463 H   0  0  0  0  0  0  0  0  0  0  0  0
   33.6455   37.0521   27.1251 H   0  0  0  0  0  0  0  0  0  0  0  0
   34.3741   37.2397   25.4940 H   0  0  0  0  0  0  0  0  0  0  0  0
  1  3  2  0  0  0  0
  1  7  1  0  0  0  0
  2 12  2  0  0  0  0
  2 18  1  0  0  0  0
  2 19  1  0  0  0  0
  3 13  1  0  0  0  0
  3 15  1  0  0  0  0
  4 17  1  0  0  0  0
  4 20  1  0  0  0  0
  4 21  2  0  0  0  0
  5  6  2  0  0  0  0
  5 10  1  0  0  0  0
  5 11  1  0  0  0  0
  6 12  1  0  0  0  0
  7  8  2  0  0  0  0
  7 22  1  0  0  0  0
  8  9  1  0  0  0  0
  9 13  2  0  0  0  0
 10 19  1  0  0  0  0
 10 20  2  0  0  0  0
 11 17  2  0  0  0  0
 12 16  1  0  0  0  0
 13 16  1  0  0  0  0
 14 19  1  0  0  0  0
 21 26  1  0  0  0  0
 23 24  1  0  0  0  0
 23 27  1  0  0  0  0
 24 25  1  0  0  0  0
 25 26  1  0  0  0  0
 26 27  1  0  0  0  0
  1 28  1  0  0  0  0
  6 29  1  0  0  0  0
  8 30  1  0  0  0  0
  9 31  1  0  0  0  0
 11 32  1  0  0  0  0
 14 33  1  0  0  0  0
 14 34  1  0  0  0  0
 14 35  1  0  0  0  0
 18 36  1  0  0  0  0
 24 37  1  0  0  0  0
 24 38  1  0  0  0  0
 25 39  1  0  0  0  0
 25 40  1  0  0  0  0
 26 41  1  0  0  0  0
 27 42  1  0  0  0  0
 27 43  1  0  0  0  0
M  END
> <r_user_dG.exp>
-10.232

$$$$
p38a_2x
  -OEChem-05162309453D
 Structure written by MMmdl.
 43 46  0     1  0  0  0  0  0999 V2000
   38.2632   36.7144   17.0134 C   0  0  0  0  0  0  0  0  0  0  0  0
   34.5448   34.9770   21.1828 C   0  0  0  0  0  0  0  0  0  0  0  0
   37.5969   36.1886   18.1373 C   0  0  0  0  0  0  0  0  0  0  0  0
   34.0445   38.9756   23.7378 C   0  0  0  0  0  0  0  0  0  0  0  0
   34.8025   37.8108   21.4407 C   0  0  0  0  0  0  0  0  0  0  0  0
   35.2536   37.1252   20.2344 C   0  0  0  0  0  0  0  0  0  0  0  0
   37.6232   36.7427   15.7594 C   0  0  0  0  0  0  0  0  0  0  0  0
   36.3272   36.2163   15.6228 C   0  0  0  0  0  0  0  0  0  0  0  0
   35.6719   35.6684   16.7395 C   0  0  0  0  0  0  0  0  0  0  0  0
   34.3067   37.0366   22.5109 C   0  0  0  0  0  0  0  0  0  0  0  0
   34.8522   39.2088   21.6169 C   0  0  0  0  0  0  0  0  0  0  0  0
   35.1646   35.7815   20.1251 C   0  0  0  0  0  0  0  0  0  0  0  0
   36.2931   35.6640   18.0028 C   0  0  0  0  0  0  0  0  0  0  0  0
   33.6690   34.8315   23.4618 C   0  0  0  0  0  0  0  0  0  0  0  0
   38.1961   36.1968   19.3280 F   0  0  0  0  0  0  0  0  0  0  0  0
   35.6498   35.0616   19.0536 O   0  0  0  0  0  0  0  0  0  0  0  0
   34.4789   39.7925   22.7772 N   0  0  0  0  0  0  0  0  0  0  0  0
   34.3290   33.7761   21.0235 O   0  0  0  0  0  0  0  0  0  0  0  0
   34.2121   35.6181   22.3415 N   0  0  0  0  0  0  0  0  0  0  0  0
   33.9306   37.6499   23.6560 N   0  0  0  0  0  0  0  0  0  0  0  0
   33.6717   39.5652   24.9268 N   0  0  0  0  0  0  0  0  0  0  0  0
   38.2365   37.2743   14.7019 F   0  0  0  0  0  0  0  0  0  0  0  0
   32.2505   36.7435   25.4774 O   0  0  0  0  0  0  0  0  0  0  0  0
   31.2662   37.8710   25.1390 C   0  0  0  0  0  0  0  0  0  0  0  0
   31.6299   38.9841   26.1241 C   0  0  0  0  0  0  0  0  0  0  0  0
   33.1592   38.9286   26.1346 C   0  0  1  0  0  0  0  0  0  0  0  0
   33.4787   37.4276   26.1047 C   0  0  0  0  0  0  0  0  0  0  0  0
   39.2681   37.0971   17.1136 H   0  0  0  0  0  0  0  0  0  0  0  0
   33.7886   37.8932   21.0222 H   0  0  0  0  0  0  0  0  0  0  0  0
   35.6644   37.6998   19.4174 H   0  0  0  0  0  0  0  0  0  0  0  0
   35.8354   36.2327   14.6614 H   0  0  0  0  0  0  0  0  0  0  0  0
   34.6837   35.2474   16.6272 H   0  0  0  0  0  0  0  0  0  0  0  0
   35.1976   39.8294   20.8033 H   0  0  0  0  0  0  0  0  0  0  0  0
   33.4566   35.4988   24.3101 H   0  0  0  0  0  0  0  0  0  0  0  0
   32.7402   34.3349   23.1446 H   0  0  0  0  0  0  0  0  0  0  0  0
   34.4045   34.0728   23.7675 H   0  0  0  0  0  0  0  0  0  0  0  0
   31.3994   38.2084   24.1005 H   0  0  0  0  0  0  0  0  0  0  0  0
   30.2273   37.5412   25.2870 H   0  0  0  0  0  0  0  0  0  0  0  0
   31.2698   39.9615   25.7705 H   0  0  0  0  0  0  0  0  0  0  0  0
   31.2177   38.7811   27.1235 H   0  0  0  0  0  0  0  0  0  0  0  0
   33.5612   39.3947   27.0463 H   0  0  0  0  0  0  0  0  0  0  0  0
   33.6455   37.0521   27.1251 H   0  0  0  0  0  0  0  0  0  0  0  0
   34.3741   37.2397   25.4940 H   0  0  0  0  0  0  0  0  0  0  0  0
  1  3  2  0  0  0  0
  1  7  1  0  0  0  0
  2 12  1  0  0  0  0
  2 18  2  0  0  0  0
  2 19  1  0  0  0  0
  3 13  1  0  0  0  0
  3 15  1  0  0  0  0
  4 17  1  0  0  0  0
  4 20  1  0  0  0  0
  4 21  2  0  0  0  0
  5  6  1  0  0  0  0
  5 10  1  0  0  0  0
  5 11  1  0  0  0  0
  6 12  2  0  0  0  0
  7  8  2  0  0  0  0
  7 22  1  0  0  0  0
  8  9  1  0  0  0  0
  9 13  2  0  0  0  0
 10 19  1  0  0  0  0
 10 20  2  0  0  0  0
 11 17  2  0  0  0  0
 12 16  1  0  0  0  0
 13 16  1  0  0  0  0
 14 19  1  0  0  0  0
 21 26  1  0  0  0  0
 23 24  1  0  0  0  0
 23 27  1  0  0  0  0
 24 25  1  0  0  0  0
 25 26  1  0  0  0  0
 26 27  1  0  0  0  0
  1 28  1  0  0  0  0
  5 29  1  0  0  0  0
  6 30  1  0  0  0  0
  8 31  1  0  0  0  0
  9 32  1  0  0  0  0
 11 33  1  0  0  0  0
 14 34  1  0  0  0  0
 14 35  1  0  0  0  0
 14 36  1  0  0  0  0
 24 37  1  0  0  0  0
 24 38  1  0  0  0  0
 25 39  1  0  0  0  0
 25 40  1  0  0  0  0
 26 41  1  0  0  0  0
 27 42  1  0  0  0  0
 27 43  1  0  0  0  0
M  END
> <r_user_dG.exp>
-10.232

$$$$
p38a_2x
  -OEChem-05162309453D
 Structure written by MMmdl.
 43 46  0     1  0  0  0  0  0999 V2000
   38.2632   36.7144   17.0134 C   0  0  0  0  0  0  0  0  0  0  0  0
   34.5448   34.9770   21.1828 C   0  0  0  0  0  0  0  0  0  0  0  0
   37.5969   36.1886   18.1373 C   0  0  0  0  0  0  0  0  0  0  0  0
   34.0445   38.9756   23.7378 C   0  0  0  0  0  0  0  0  0  0  0  0
   34.8025   37.8108   21.4407 C   0  0  0  0  0  0  0  0  0  0  0  0
   35.2536   37.1252   20.2344 C   0  0  0  0  0  0  0  0  0  0  0  0
   37.6232   36.7427   15.7594 C   0  0  0  0  0  0  0  0  0  0  0  0
   36.3272   36.2163   15.6228 C   0  0  0  0  0  0  0  0  0  0  0  0
   35.6719   35.6684   16.7395 C   0  0  0  0  0  0  0  0  0  0  0  0
   34.3067   37.0366   22.5109 C   0  0  0  0  0  0  0  0  0  0  0  0
   34.8522   39.2088   21.6169 C   0  0  0  0  0  0  0  0  0  0  0  0
   35.1646   35.7815   20.1251 C   0  0  0  0  0  0  0  0  0  0  0  0
   36.2931   35.6640   18.0028 C   0  0  0  0  0  0  0  0  0  0  0  0
   33.6690   34.8315   23.4618 C   0  0  0  0  0  0  0  0  0  0  0  0
   38.1961   36.1968   19.3280 F   0  0  0  0  0  0  0  0  0  0  0  0
   35.6498   35.0616   19.0536 O   0  0  0  0  0  0  0  0  0  0  0  0
   34.4789   39.7925   22.7772 N   0  0  0  0  0  0  0  0  0  0  0  0
   34.3290   33.7761   21.0235 O   0  0  0  0  0  0  0  0  0  0  0  0
   34.2121   35.6181   22.3415 N   0  0  0  0  0  0  0  0  0  0  0  0
   33.9306   37.6499   23.6560 N   0  0  0  0  0  0  0  0  0  0  0  0
   33.6717   39.5652   24.9268 N   0  0  0  0  0  0  0  0  0  0  0  0
   38.2365   37.2743   14.7019 F   0  0  0  0  0  0  0  0  0  0  0  0
   32.2505   36.7435   25.4774 O   0  0  0  0  0  0  0  0  0  0  0  0
   31.2662   37.8710   25.1390 C   0  0  0  0  0  0  0  0  0  0  0  0
   31.6299   38.9841   26.1241 C   0  0  0  0  0  0  0  0  0  0  0  0
   33.1592   38.9286   26.1346 C   0  0  1  0  0  0  0  0  0  0  0  0
   33.4787   37.4276   26.1047 C   0  0  0  0  0  0  0  0  0  0  0  0
   39.2681   37.0971   17.1136 H   0  0  0  0  0  0  0  0  0  0  0  0
   35.6644   37.6998   19.4174 H   0  0  0  0  0  0  0  0  0  0  0  0
   35.8354   36.2327   14.6614 H   0  0  0  0  0  0  0  0  0  0  0  0
   34.6837   35.2474   16.6272 H   0  0  0  0  0  0  0  0  0  0  0  0
   35.1976   39.8294   20.8033 H   0  0  0  0  0  0  0  0  0  0  0  0
   34.1907   35.8815   19.6236 H   0  0  0  0  0  0  0  0  0  0  0  0
   33.4566   35.4988   24.3101 H   0  0  0  0  0  0  0  0  0  0  0  0
   32.7402   34.3349   23.1446 H   0  0  0  0  0  0  0  0  0  0  0  0
   34.4045   34.0728   23.7675 H   0  0  0  0  0  0  0  0  0  0  0  0
   31.3994   38.2084   24.1005 H   0  0  0  0  0  0  0  0  0  0  0  0
   30.2273   37.5412   25.2870 H   0  0  0  0  0  0  0  0  0  0  0  0
   31.2698   39.9615   25.7705 H   0  0  0  0  0  0  0  0  0  0  0  0
   31.2177   38.7811   27.1235 H   0  0  0  0  0  0  0  0  0  0  0  0
   33.5612   39.3947   27.0463 H   0  0  0  0  0  0  0  0  0  0  0  0
   33.6455   37.0521   27.1251 H   0  0  0  0  0  0  0  0  0  0  0  0
   34.3741   37.2397   25.4940 H   0  0  0  0  0  0  0  0  0  0  0  0
  1  3  2  0  0  0  0
  1  7  1  0  0  0  0
  2 12  1  0  0  0  0
  2 18  2  0  0  0  0
  2 19  1  0  0  0  0
  3 13  1  0  0  0  0
  3 15  1  0  0  0  0
  4 17  1  0  0  0  0
  4 20  1  0  0  0  0
  4 21  2  0  0  0  0
  5  6  2  0  0  0  0
  5 10  1  0  0  0  0
  5 11  1  0  0  0  0
  6 12  1  0  0  0  0
  7  8  2  0  0  0  0
  7 22  1  0  0  0  0
  8  9  1  0  0  0  0
  9 13  2  0  0  0  0
 10 19  1  0  0  0  0
 10 20  2  0  0  0  0
 11 17  2  0  0  0  0
 12 16  1  0  0  0  0
 13 16  1  0  0  0  0
 14 19  1  0  0  0  0
 21 26  1  0  0  0  0
 23 24  1  0  0  0  0
 23 27  1  0  0  0  0
 24 25  1  0  0  0  0
 25 26  1  0  0  0  0
 26 27  1  0  0  0  0
  1 28  1  0  0  0  0
  6 29  1  0  0  0  0
  8 30  1  0  0  0  0
  9 31  1  0  0  0  0
 11 32  1  0  0  0  0
 12 33  1  0  0  0  0
 14 34  1  0  0  0  0
 14 35  1  0  0  0  0
 14 36  1  0  0  0  0
 24 37  1  0  0  0  0
 24 38  1  0  0  0  0
 25 39  1  0  0  0  0
 25 40  1  0  0  0  0
 26 41  1  0  0  0  0
 27 42  1  0  0  0  0
 27 43  1  0  0  0  0
M  END
> <r_user_dG.exp>
-10.232

$$$$
