p38a_2bb
  -OEChem-05162309453D
 Structure written by MMmdl.
 44 46  0     0  0  0  0  0  0999 V2000
   38.2632   36.7144   17.0134 C   0  0  0  0  0  0  0  0  0  0  0  0
   34.5448   34.9770   21.1828 C   0  0  0  0  0  0  0  0  0  0  0  0
   37.5969   36.1886   18.1373 C   0  0  0  0  0  0  0  0  0  0  0  0
   34.0445   38.9756   23.7378 C   0  0  0  0  0  0  0  0  0  0  0  0
   33.1562   38.9294   26.1332 C   0  0  0  0  0  0  0  0  0  0  0  0
   34.8025   37.8108   21.4407 C   0  0  0  0  0  0  0  0  0  0  0  0
   35.2536   37.1252   20.2344 C   0  0  0  0  0  0  0  0  0  0  0  0
   37.6232   36.7427   15.7594 C   0  0  0  0  0  0  0  0  0  0  0  0
   36.3272   36.2163   15.6228 C   0  0  0  0  0  0  0  0  0  0  0  0
   35.6719   35.6684   16.7395 C   0  0  0  0  0  0  0  0  0  0  0  0
   34.3067   37.0366   22.5109 C   0  0  0  0  0  0  0  0  0  0  0  0
   34.8522   39.2088   21.6169 C   0  0  0  0  0  0  0  0  0  0  0  0
   35.1646   35.7815   20.1251 C   0  0  0  0  0  0  0  0  0  0  0  0
   36.2931   35.6640   18.0028 C   0  0  0  0  0  0  0  0  0  0  0  0
   33.6690   34.8315   23.4618 C   0  0  0  0  0  0  0  0  0  0  0  0
   38.1961   36.1968   19.3280 F   0  0  0  0  0  0  0  0  0  0  0  0
   35.6498   35.0616   19.0536 O   0  0  0  0  0  0  0  0  0  0  0  0
   34.4789   39.7925   22.7772 N   0  0  0  0  0  0  0  0  0  0  0  0
   34.3290   33.7761   21.0235 O   0  0  0  0  0  0  0  0  0  0  0  0
   34.2121   35.6181   22.3415 N   0  0  0  0  0  0  0  0  0  0  0  0
   33.9306   37.6499   23.6560 N   0  0  0  0  0  0  0  0  0  0  0  0
   33.6717   39.5652   24.9268 N   0  0  0  0  0  0  0  0  0  0  0  0
   38.2365   37.2743   14.7019 F   0  0  0  0  0  0  0  0  0  0  0  0
   33.6752   39.6520   27.3409 C   0  0  0  0  0  0  0  0  0  0  0  0
   33.5527   39.5830   30.0407 C   0  0  0  0  0  0  0  0  0  0  0  0
   33.0280   38.8532   28.8398 S   0  0  0  0  0  0  0  0  0  0  0  0
   31.5525   38.9898   28.8329 O   0  0  0  0  0  0  0  0  0  0  0  0
   33.5502   37.4673   28.8828 O   0  0  0  0  0  0  0  0  0  0  0  0
   39.2681   37.0971   17.1136 H   0  0  0  0  0  0  0  0  0  0  0  0
   32.0569   38.9685   26.1270 H   0  0  0  0  0  0  0  0  0  0  0  0
   33.4857   37.8804   26.1640 H   0  0  0  0  0  0  0  0  0  0  0  0
   35.6644   37.6998   19.4174 H   0  0  0  0  0  0  0  0  0  0  0  0
   35.8354   36.2327   14.6614 H   0  0  0  0  0  0  0  0  0  0  0  0
   34.6837   35.2474   16.6272 H   0  0  0  0  0  0  0  0  0  0  0  0
   35.1976   39.8294   20.8033 H   0  0  0  0  0  0  0  0  0  0  0  0
   33.4566   35.4988   24.3101 H   0  0  0  0  0  0  0  0  0  0  0  0
   32.7402   34.3349   23.1446 H   0  0  0  0  0  0  0  0  0  0  0  0
   34.4045   34.0728   23.7675 H   0  0  0  0  0  0  0  0  0  0  0  0
   34.4889   40.0547   25.2310 H   0  0  0  0  0  0  0  0  0  0  0  0
   34.7745   39.6130   27.3487 H   0  0  0  0  0  0  0  0  0  0  0  0
   33.3457   40.7011   27.3117 H   0  0  0  0  0  0  0  0  0  0  0  0
   33.1679   39.1088   30.9556 H   0  0  0  0  0  0  0  0  0  0  0  0
   34.6520   39.5438   30.0421 H   0  0  0  0  0  0  0  0  0  0  0  0
   33.2233   40.6319   30.0050 H   0  0  0  0  0  0  0  0  0  0  0  0
  1  3  2  0  0  0  0
  1  8  1  0  0  0  0
  2 13  1  0  0  0  0
  2 19  2  0  0  0  0
  2 20  1  0  0  0  0
  3 14  1  0  0  0  0
  3 16  1  0  0  0  0
  4 18  2  0  0  0  0
  4 21  1  0  0  0  0
  4 22  1  0  0  0  0
  5 22  1  0  0  0  0
  5 24  1  0  0  0  0
  6  7  1  0  0  0  0
  6 11  1  0  0  0  0
  6 12  2  0  0  0  0
  7 13  2  0  0  0  0
  8  9  2  0  0  0  0
  8 23  1  0  0  0  0
  9 10  1  0  0  0  0
 10 14  2  0  0  0  0
 11 20  1  0  0  0  0
 11 21  2  0  0  0  0
 12 18  1  0  0  0  0
 13 17  1  0  0  0  0
 14 17  1  0  0  0  0
 15 20  1  0  0  0  0
 24 26  1  0  0  0  0
 25 26  1  0  0  0  0
 26 27  2  0  0  0  0
 26 28  2  0  0  0  0
  1 29  1  0  0  0  0
  5 30  1  0  0  0  0
  5 31  1  0  0  0  0
  7 32  1  0  0  0  0
  9 33  1  0  0  0  0
 10 34  1  0  0  0  0
 12 35  1  0  0  0  0
 15 36  1  0  0  0  0
 15 37  1  0  0  0  0
 15 38  1  0  0  0  0
 22 39  1  0  0  0  0
 24 40  1  0  0  0  0
 24 41  1  0  0  0  0
 25 42  1  0  0  0  0
 25 43  1  0  0  0  0
 25 44  1  0  0  0  0
M  END
> <r_user_dG.exp>
-9.064

$$$$
p38a_2bb
  -OEChem-05162309453D
 Structure written by MMmdl.
 44 46  0     0  0  0  0  0  0999 V2000
   38.2632   36.7144   17.0134 C   0  0  0  0  0  0  0  0  0  0  0  0
   34.5448   34.9770   21.1828 C   0  0  0  0  0  0  0  0  0  0  0  0
   37.5969   36.1886   18.1373 C   0  0  0  0  0  0  0  0  0  0  0  0
   34.0445   38.9756   23.7378 C   0  0  0  0  0  0  0  0  0  0  0  0
   33.1562   38.9294   26.1332 C   0  0  0  0  0  0  0  0  0  0  0  0
   34.8025   37.8108   21.4407 C   0  0  0  0  0  0  0  0  0  0  0  0
   35.2536   37.1252   20.2344 C   0  0  0  0  0  0  0  0  0  0  0  0
   37.6232   36.7427   15.7594 C   0  0  0  0  0  0  0  0  0  0  0  0
   36.3272   36.2163   15.6228 C   0  0  0  0  0  0  0  0  0  0  0  0
   35.6719   35.6684   16.7395 C   0  0  0  0  0  0  0  0  0  0  0  0
   34.3067   37.0366   22.5109 C   0  0  0  0  0  0  0  0  0  0  0  0
   34.8522   39.2088   21.6169 C   0  0  0  0  0  0  0  0  0  0  0  0
   35.1646   35.7815   20.1251 C   0  0  0  0  0  0  0  0  0  0  0  0
   36.2931   35.6640   18.0028 C   0  0  0  0  0  0  0  0  0  0  0  0
   33.6690   34.8315   23.4618 C   0  0  0  0  0  0  0  0  0  0  0  0
   38.1961   36.1968   19.3280 F   0  0  0  0  0  0  0  0  0  0  0  0
   35.6498   35.0616   19.0536 O   0  0  0  0  0  0  0  0  0  0  0  0
   34.4789   39.7925   22.7772 N   0  0  0  0  0  0  0  0  0  0  0  0
   34.3290   33.7761   21.0235 O   0  0  0  0  0  0  0  0  0  0  0  0
   34.2121   35.6181   22.3415 N   0  0  0  0  0  0  0  0  0  0  0  0
   33.9306   37.6499   23.6560 N   0  0  0  0  0  0  0  0  0  0  0  0
   33.6717   39.5652   24.9268 N   0  0  0  0  0  0  0  0  0  0  0  0
   38.2365   37.2743   14.7019 F   0  0  0  0  0  0  0  0  0  0  0  0
   33.6752   39.6520   27.3409 C   0  0  0  0  0  0  0  0  0  0  0  0
   33.5527   39.5830   30.0407 C   0  0  0  0  0  0  0  0  0  0  0  0
   33.0280   38.8532   28.8398 S   0  0  0  0  0  0  0  0  0  0  0  0
   31.5525   38.9898   28.8329 O   0  0  0  0  0  0  0  0  0  0  0  0
   33.5502   37.4673   28.8828 O   0  0  0  0  0  0  0  0  0  0  0  0
   39.2681   37.0971   17.1136 H   0  0  0  0  0  0  0  0  0  0  0  0
   32.0569   38.9685   26.1270 H   0  0  0  0  0  0  0  0  0  0  0  0
   33.4857   37.8804   26.1640 H   0  0  0  0  0  0  0  0  0  0  0  0
   35.6644   37.6998   19.4174 H   0  0  0  0  0  0  0  0  0  0  0  0
   35.8354   36.2327   14.6614 H   0  0  0  0  0  0  0  0  0  0  0  0
   34.6837   35.2474   16.6272 H   0  0  0  0  0  0  0  0  0  0  0  0
   35.1976   39.8294   20.8033 H   0  0  0  0  0  0  0  0  0  0  0  0
   33.4566   35.4988   24.3101 H   0  0  0  0  0  0  0  0  0  0  0  0
   32.7402   34.3349   23.1446 H   0  0  0  0  0  0  0  0  0  0  0  0
   34.4045   34.0728   23.7675 H   0  0  0  0  0  0  0  0  0  0  0  0
   33.5744   37.1199   24.4255 H   0  0  0  0  0  0  0  0  0  0  0  0
   34.7745   39.6130   27.3487 H   0  0  0  0  0  0  0  0  0  0  0  0
   33.3457   40.7011   27.3117 H   0  0  0  0  0  0  0  0  0  0  0  0
   33.1679   39.1088   30.9556 H   0  0  0  0  0  0  0  0  0  0  0  0
   34.6520   39.5438   30.0421 H   0  0  0  0  0  0  0  0  0  0  0  0
   33.2233   40.6319   30.0050 H   0  0  0  0  0  0  0  0  0  0  0  0
  1  3  2  0  0  0  0
  1  8  1  0  0  0  0
  2 13  1  0  0  0  0
  2 19  2  0  0  0  0
  2 20  1  0  0  0  0
  3 14  1  0  0  0  0
  3 16  1  0  0  0  0
  4 18  1  0  0  0  0
  4 21  1  0  0  0  0
  4 22  2  0  0  0  0
  5 22  1  0  0  0  0
  5 24  1  0  0  0  0
  6  7  1  0  0  0  0
  6 11  2  0  0  0  0
  6 12  1  0  0  0  0
  7 13  2  0  0  0  0
  8  9  2  0  0  0  0
  8 23  1  0  0  0  0
  9 10  1  0  0  0  0
 10 14  2  0  0  0  0
 11 20  1  0  0  0  0
 11 21  1  0  0  0  0
 12 18  2  0  0  0  0
 13 17  1  0  0  0  0
 14 17  1  0  0  0  0
 15 20  1  0  0  0  0
 24 26  1  0  0  0  0
 25 26  1  0  0  0  0
 26 27  2  0  0  0  0
 26 28  2  0  0  0  0
  1 29  1  0  0  0  0
  5 30  1  0  0  0  0
  5 31  1  0  0  0  0
  7 32  1  0  0  0  0
  9 33  1  0  0  0  0
 10 34  1  0  0  0  0
 12 35  1  0  0  0  0
 15 36  1  0  0  0  0
 15 37  1  0  0  0  0
 15 38  1  0  0  0  0
 21 39  1  0  0  0  0
 24 40  1  0  0  0  0
 24 41  1  0  0  0  0
 25 42  1  0  0  0  0
 25 43  1  0  0  0  0
 25 44  1  0  0  0  0
M  END
> <r_user_dG.exp>
-9.064

$$$$
p38a_2bb
  -OEChem-05162309453D
 Structure written by MMmdl.
 44 46  0     0  0  0  0  0  0999 V2000
   38.2632   36.7144   17.0134 C   0  0  0  0  0  0  0  0  0  0  0  0
   34.5448   34.9770   21.1828 C   0  0  0  0  0  0  0  0  0  0  0  0
   37.5969   36.1886   18.1373 C   0  0  0  0  0  0  0  0  0  0  0  0
   34.0445   38.9756   23.7378 C   0  0  0  0  0  0  0  0  0  0  0  0
   33.1562   38.9294   26.1332 C   0  0  0  0  0  0  0  0  0  0  0  0
   34.8025   37.8108   21.4407 C   0  0  0  0  0  0  0  0  0  0  0  0
   35.2536   37.1252   20.2344 C   0  0  0  0  0  0  0  0  0  0  0  0
   37.6232   36.7427   15.7594 C   0  0  0  0  0  0  0  0  0  0  0  0
   36.3272   36.2163   15.6228 C   0  0  0  0  0  0  0  0  0  0  0  0
   35.6719   35.6684   16.7395 C   0  0  0  0  0  0  0  0  0  0  0  0
   34.3067   37.0366   22.5109 C   0  0  0  0  0  0  0  0  0  0  0  0
   34.8522   39.2088   21.6169 C   0  0  0  0  0  0  0  0  0  0  0  0
   35.1646   35.7815   20.1251 C   0  0  0  0  0  0  0  0  0  0  0  0
   36.2931   35.6640   18.0028 C   0  0  0  0  0  0  0  0  0  0  0  0
   33.6690   34.8315   23.4618 C   0  0  0  0  0  0  0  0  0  0  0  0
   38.1961   36.1968   19.3280 F   0  0  0  0  0  0  0  0  0  0  0  0
   35.6498   35.0616   19.0536 O   0  0  0  0  0  0  0  0  0  0  0  0
   34.4789   39.7925   22.7772 N   0  0  0  0  0  0  0  0  0  0  0  0
   34.3290   33.7761   21.0235 O   0  0  0  0  0  0  0  0  0  0  0  0
   34.2121   35.6181   22.3415 N   0  0  0  0  0  0  0  0  0  0  0  0
   33.9306   37.6499   23.6560 N   0  0  0  0  0  0  0  0  0  0  0  0
   33.6717   39.5652   24.9268 N   0  0  0  0  0  0  0  0  0  0  0  0
   38.2365   37.2743   14.7019 F   0  0  0  0  0  0  0  0  0  0  0  0
   33.6752   39.6520   27.3409 C   0  0  0  0  0  0  0  0  0  0  0  0
   33.5527   39.5830   30.0407 C   0  0  0  0  0  0  0  0  0  0  0  0
   33.0280   38.8532   28.8398 S   0  0  0  0  0  0  0  0  0  0  0  0
   31.5525   38.9898   28.8329 O   0  0  0  0  0  0  0  0  0  0  0  0
   33.5502   37.4673   28.8828 O   0  0  0  0  0  0  0  0  0  0  0  0
   39.2681   37.0971   17.1136 H   0  0  0  0  0  0  0  0  0  0  0  0
   32.0569   38.9685   26.1270 H   0  0  0  0  0  0  0  0  0  0  0  0
   33.4857   37.8804   26.1640 H   0  0  0  0  0  0  0  0  0  0  0  0
   35.6644   37.6998   19.4174 H   0  0  0  0  0  0  0  0  0  0  0  0
   35.8354   36.2327   14.6614 H   0  0  0  0  0  0  0  0  0  0  0  0
   34.6837   35.2474   16.6272 H   0  0  0  0  0  0  0  0  0  0  0  0
   35.1976   39.8294   20.8033 H   0  0  0  0  0  0  0  0  0  0  0  0
   33.4566   35.4988   24.3101 H   0  0  0  0  0  0  0  0  0  0  0  0
   32.7402   34.3349   23.1446 H   0  0  0  0  0  0  0  0  0  0  0  0
   34.4045   34.0728   23.7675 H   0  0  0  0  0  0  0  0  0  0  0  0
   34.5258   40.7827   22.9084 H   0  0  0  0  0  0  0  0  0  0  0  0
   34.7745   39.6130   27.3487 H   0  0  0  0  0  0  0  0  0  0  0  0
   33.3457   40.7011   27.3117 H   0  0  0  0  0  0  0  0  0  0  0  0
   33.1679   39.1088   30.9556 H   0  0  0  0  0  0  0  0  0  0  0  0
   34.6520   39.5438   30.0421 H   0  0  0  0  0  0  0  0  0  0  0  0
   33.2233   40.6319   30.0050 H   0  0  0  0  0  0  0  0  0  0  0  0
  1  3  2  0  0  0  0
  1  8  1  0  0  0  0
  2 13  1  0  0  0  0
  2 19  2  0  0  0  0
  2 20  1  0  0  0  0
  3 14  1  0  0  0  0
  3 16  1  0  0  0  0
  4 18  1  0  0  0  0
  4 21  1  0  0  0  0
  4 22  2  0  0  0  0
  5 22  1  0  0  0  0
  5 24  1  0  0  0  0
  6  7  1  0  0  0  0
  6 11  1  0  0  0  0
  6 12  2  0  0  0  0
  7 13  2  0  0  0  0
  8  9  2  0  0  0  0
  8 23  1  0  0  0  0
  9 10  1  0  0  0  0
 10 14  2  0  0  0  0
 11 20  1  0  0  0  0
 11 21  2  0  0  0  0
 12 18  1  0  0  0  0
 13 17  1  0  0  0  0
 14 17  1  0  0  0  0
 15 20  1  0  0  0  0
 24 26  1  0  0  0  0
 25 26  1  0  0  0  0
 26 27  2  0  0  0  0
 26 28  2  0  0  0  0
  1 29  1  0  0  0  0
  5 30  1  0  0  0  0
  5 31  1  0  0  0  0
  7 32  1  0  0  0  0
  9 33  1  0  0  0  0
 10 34  1  0  0  0  0
 12 35  1  0  0  0  0
 15 36  1  0  0  0  0
 15 37  1  0  0  0  0
 15 38  1  0  0  0  0
 18 39  1  0  0  0  0
 24 40  1  0  0  0  0
 24 41  1  0  0  0  0
 25 42  1  0  0  0  0
 25 43  1  0  0  0  0
 25 44  1  0  0  0  0
M  END
> <r_user_dG.exp>
-9.064

$$$$
p38a_2bb
  -OEChem-05162309453D
 Structure written by MMmdl.
 44 46  0     0  0  0  0  0  0999 V2000
   38.2632   36.7144   17.0134 C   0  0  0  0  0  0  0  0  0  0  0  0
   34.5448   34.9770   21.1828 C   0  0  0  0  0  0  0  0  0  0  0  0
   37.5969   36.1886   18.1373 C   0  0  0  0  0  0  0  0  0  0  0  0
   34.0445   38.9756   23.7378 C   0  0  0  0  0  0  0  0  0  0  0  0
   33.1562   38.9294   26.1332 C   0  0  0  0  0  0  0  0  0  0  0  0
   34.8025   37.8108   21.4407 C   0  0  0  0  0  0  0  0  0  0  0  0
   35.2536   37.1252   20.2344 C   0  0  0  0  0  0  0  0  0  0  0  0
   37.6232   36.7427   15.7594 C   0  0  0  0  0  0  0  0  0  0  0  0
   36.3272   36.2163   15.6228 C   0  0  0  0  0  0  0  0  0  0  0  0
   35.6719   35.6684   16.7395 C   0  0  0  0  0  0  0  0  0  0  0  0
   34.3067   37.0366   22.5109 C   0  0  0  0  0  0  0  0  0  0  0  0
   34.8522   39.2088   21.6169 C   0  0  0  0  0  0  0  0  0  0  0  0
   35.1646   35.7815   20.1251 C   0  0  0  0  0  0  0  0  0  0  0  0
   36.2931   35.6640   18.0028 C   0  0  0  0  0  0  0  0  0  0  0  0
   33.6690   34.8315   23.4618 C   0  0  0  0  0  0  0  0  0  0  0  0
   38.1961   36.1968   19.3280 F   0  0  0  0  0  0  0  0  0  0  0  0
   35.6498   35.0616   19.0536 O   0  0  0  0  0  0  0  0  0  0  0  0
   34.4789   39.7925   22.7772 N   0  0  0  0  0  0  0  0  0  0  0  0
   34.3290   33.7761   21.0235 O   0  0  0  0  0  0  0  0  0  0  0  0
   34.2121   35.6181   22.3415 N   0  0  0  0  0  0  0  0  0  0  0  0
   33.9306   37.6499   23.6560 N   0  0  0  0  0  0  0  0  0  0  0  0
   33.6717   39.5652   24.9268 N   0  0  0  0  0  0  0  0  0  0  0  0
   38.2365   37.2743   14.7019 F   0  0  0  0  0  0  0  0  0  0  0  0
   33.6752   39.6520   27.3409 C   0  0  0  0  0  0  0  0  0  0  0  0
   33.5527   39.5830   30.0407 C   0  0  0  0  0  0  0  0  0  0  0  0
   33.0280   38.8532   28.8398 S   0  0  0  0  0  0  0  0  0  0  0  0
   31.5525   38.9898   28.8329 O   0  0  0  0  0  0  0  0  0  0  0  0
   33.5502   37.4673   28.8828 O   0  0  0  0  0  0  0  0  0  0  0  0
   39.2681   37.0971   17.1136 H   0  0  0  0  0  0  0  0  0  0  0  0
   32.0569   38.9685   26.1270 H   0  0  0  0  0  0  0  0  0  0  0  0
   33.4857   37.8804   26.1640 H   0  0  0  0  0  0  0  0  0  0  0  0
   35.6644   37.6998   19.4174 H   0  0  0  0  0  0  0  0  0  0  0  0
   35.8354   36.2327   14.6614 H   0  0  0  0  0  0  0  0  0  0  0  0
   34.6837   35.2474   16.6272 H   0  0  0  0  0  0  0  0  0  0  0  0
   35.1976   39.8294   20.8033 H   0  0  0  0  0  0  0  0  0  0  0  0
   33.4566   35.4988   24.3101 H   0  0  0  0  0  0  0  0  0  0  0  0
   32.7402   34.3349   23.1446 H   0  0  0  0  0  0  0  0  0  0  0  0
   34.4045   34.0728   23.7675 H   0  0  0  0  0  0  0  0  0  0  0  0
   33.9261   33.4197   21.8065 H   0  0  0  0  0  0  0  0  0  0  0  0
   34.7745   39.6130   27.3487 H   0  0  0  0  0  0  0  0  0  0  0  0
   33.3457   40.7011   27.3117 H   0  0  0  0  0  0  0  0  0  0  0  0
   33.1679   39.1088   30.9556 H   0  0  0  0  0  0  0  0  0  0  0  0
   34.6520   39.5438   30.0421 H   0  0  0  0  0  0  0  0  0  0  0  0
   33.2233   40.6319   30.0050 H   0  0  0  0  0  0  0  0  0  0  0  0
  1  3  2  0  0  0  0
  1  8  1  0  0  0  0
  2 13  2  0  0  0  0
  2 19  1  0  0  0  0
  2 20  1  0  0  0  0
  3 14  1  0  0  0  0
  3 16  1  0  0  0  0
  4 18  1  0  0  0  0
  4 21  1  0  0  0  0
  4 22  2  0  0  0  0
  5 22  1  0  0  0  0
  5 24  1  0  0  0  0
  6  7  2  0  0  0  0
  6 11  1  0  0  0  0
  6 12  1  0  0  0  0
  7 13  1  0  0  0  0
  8  9  2  0  0  0  0
  8 23  1  0  0  0  0
  9 10  1  0  0  0  0
 10 14  2  0  0  0  0
 11 20  1  0  0  0  0
 11 21  2  0  0  0  0
 12 18  2  0  0  0  0
 13 17  1  0  0  0  0
 14 17  1  0  0  0  0
 15 20  1  0  0  0  0
 24 26  1  0  0  0  0
 25 26  1  0  0  0  0
 26 27  2  0  0  0  0
 26 28  2  0  0  0  0
  1 29  1  0  0  0  0
  5 30  1  0  0  0  0
  5 31  1  0  0  0  0
  7 32  1  0  0  0  0
  9 33  1  0  0  0  0
 10 34  1  0  0  0  0
 12 35  1  0  0  0  0
 15 36  1  0  0  0  0
 15 37  1  0  0  0  0
 15 38  1  0  0  0  0
 19 39  1  0  0  0  0
 24 40  1  0  0  0  0
 24 41  1  0  0  0  0
 25 42  1  0  0  0  0
 25 43  1  0  0  0  0
 25 44  1  0  0  0  0
M  END
> <r_user_dG.exp>
-9.064

$$$$
p38a_2bb
  -OEChem-05162309453D
 Structure written by MMmdl.
 44 46  0     1  0  0  0  0  0999 V2000
   38.2632   36.7144   17.0134 C   0  0  0  0  0  0  0  0  0  0  0  0
   34.5448   34.9770   21.1828 C   0  0  0  0  0  0  0  0  0  0  0  0
   37.5969   36.1886   18.1373 C   0  0  0  0  0  0  0  0  0  0  0  0
   34.0445   38.9756   23.7378 C   0  0  0  0  0  0  0  0  0  0  0  0
   33.1562   38.9294   26.1332 C   0  0  0  0  0  0  0  0  0  0  0  0
   34.8025   37.8108   21.4407 C   0  0  3  0  0  0  0  0  0  0  0  0
   35.2536   37.1252   20.2344 C   0  0  0  0  0  0  0  0  0  0  0  0
   37.6232   36.7427   15.7594 C   0  0  0  0  0  0  0  0  0  0  0  0
   36.3272   36.2163   15.6228 C   0  0  0  0  0  0  0  0  0  0  0  0
   35.6719   35.6684   16.7395 C   0  0  0  0  0  0  0  0  0  0  0  0
   34.3067   37.0366   22.5109 C   0  0  0  0  0  0  0  0  0  0  0  0
   34.8522   39.2088   21.6169 C   0  0  0  0  0  0  0  0  0  0  0  0
   35.1646   35.7815   20.1251 C   0  0  0  0  0  0  0  0  0  0  0  0
   36.2931   35.6640   18.0028 C   0  0  0  0  0  0  0  0  0  0  0  0
   33.6690   34.8315   23.4618 C   0  0  0  0  0  0  0  0  0  0  0  0
   38.1961   36.1968   19.3280 F   0  0  0  0  0  0  0  0  0  0  0  0
   35.6498   35.0616   19.0536 O   0  0  0  0  0  0  0  0  0  0  0  0
   34.4789   39.7925   22.7772 N   0  0  0  0  0  0  0  0  0  0  0  0
   34.3290   33.7761   21.0235 O   0  0  0  0  0  0  0  0  0  0  0  0
   34.2121   35.6181   22.3415 N   0  0  0  0  0  0  0  0  0  0  0  0
   33.9306   37.6499   23.6560 N   0  0  0  0  0  0  0  0  0  0  0  0
   33.6717   39.5652   24.9268 N   0  0  0  0  0  0  0  0  0  0  0  0
   38.2365   37.2743   14.7019 F   0  0  0  0  0  0  0  0  0  0  0  0
   33.6752   39.6520   27.3409 C   0  0  0  0  0  0  0  0  0  0  0  0
   33.5527   39.5830   30.0407 C   0  0  0  0  0  0  0  0  0  0  0  0
   33.0280   38.8532   28.8398 S   0  0  0  0  0  0  0  0  0  0  0  0
   31.5525   38.9898   28.8329 O   0  0  0  0  0  0  0  0  0  0  0  0
   33.5502   37.4673   28.8828 O   0  0  0  0  0  0  0  0  0  0  0  0
   39.2681   37.0971   17.1136 H   0  0  0  0  0  0  0  0  0  0  0  0
   32.0569   38.9685   26.1270 H   0  0  0  0  0  0  0  0  0  0  0  0
   33.4857   37.8804   26.1640 H   0  0  0  0  0  0  0  0  0  0  0  0
   33.7886   37.8932   21.0222 H   0  0  0  0  0  0  0  0  0  0  0  0
   35.6644   37.6998   19.4174 H   0  0  0  0  0  0  0  0  0  0  0  0
   35.8354   36.2327   14.6614 H   0  0  0  0  0  0  0  0  0  0  0  0
   34.6837   35.2474   16.6272 H   0  0  0  0  0  0  0  0  0  0  0  0
   35.1976   39.8294   20.8033 H   0  0  0  0  0  0  0  0  0  0  0  0
   33.4566   35.4988   24.3101 H   0  0  0  0  0  0  0  0  0  0  0  0
   32.7402   34.3349   23.1446 H   0  0  0  0  0  0  0  0  0  0  0  0
   34.4045   34.0728   23.7675 H   0  0  0  0  0  0  0  0  0  0  0  0
   34.7745   39.6130   27.3487 H   0  0  0  0  0  0  0  0  0  0  0  0
   33.3457   40.7011   27.3117 H   0  0  0  0  0  0  0  0  0  0  0  0
   33.1679   39.1088   30.9556 H   0  0  0  0  0  0  0  0  0  0  0  0
   34.6520   39.5438   30.0421 H   0  0  0  0  0  0  0  0  0  0  0  0
   33.2233   40.6319   30.0050 H   0  0  0  0  0  0  0  0  0  0  0  0
  1  3  2  0  0  0  0
  1  8  1  0  0  0  0
  2 13  1  0  0  0  0
  2 19  2  0  0  0  0
  2 20  1  0  0  0  0
  3 14  1  0  0  0  0
  3 16  1  0  0  0  0
  4 18  1  0  0  0  0
  4 21  1  0  0  0  0
  4 22  2  0  0  0  0
  5 22  1  0  0  0  0
  5 24  1  0  0  0  0
  6  7  1  0  0  0  0
  6 11  1  0  0  0  0
  6 12  1  0  0  0  0
  7 13  2  0  0  0  0
  8  9  2  0  0  0  0
  8 23  1  0  0  0  0
  9 10  1  0  0  0  0
 10 14  2  0  0  0  0
 11 20  1  0  0  0  0
 11 21  2  0  0  0  0
 12 18  2  0  0  0  0
 13 17  1  0  0  0  0
 14 17  1  0  0  0  0
 15 20  1  0  0  0  0
 24 26  1  0  0  0  0
 25 26  1  0  0  0  0
 26 27  2  0  0  0  0
 26 28  2  0  0  0  0
  1 29  1  0  0  0  0
  5 30  1  0  0  0  0
  5 31  1  0  0  0  0
  6 32  1  0  0  0  0
  7 33  1  0  0  0  0
  9 34  1  0  0  0  0
 10 35  1  0  0  0  0
 12 36  1  0  0  0  0
 15 37  1  0  0  0  0
 15 38  1  0  0  0  0
 15 39  1  0  0  0  0
 24 40  1  0  0  0  0
 24 41  1  0  0  0  0
 25 42  1  0  0  0  0
 25 43  1  0  0  0  0
 25 44  1  0  0  0  0
M  END
> <r_user_dG.exp>
-9.064

$$$$
p38a_2bb
  -OEChem-05162309453D
 Structure written by MMmdl.
 44 46  0     1  0  0  0  0  0999 V2000
   38.2632   36.7144   17.0134 C   0  0  0  0  0  0  0  0  0  0  0  0
   34.5448   34.9770   21.1828 C   0  0  0  0  0  0  0  0  0  0  0  0
   37.5969   36.1886   18.1373 C   0  0  0  0  0  0  0  0  0  0  0  0
   34.0445   38.9756   23.7378 C   0  0  0  0  0  0  0  0  0  0  0  0
   33.1562   38.9294   26.1332 C   0  0  0  0  0  0  0  0  0  0  0  0
   34.8025   37.8108   21.4407 C   0  0  0  0  0  0  0  0  0  0  0  0
   35.2536   37.1252   20.2344 C   0  0  0  0  0  0  0  0  0  0  0  0
   37.6232   36.7427   15.7594 C   0  0  0  0  0  0  0  0  0  0  0  0
   36.3272   36.2163   15.6228 C   0  0  0  0  0  0  0  0  0  0  0  0
   35.6719   35.6684   16.7395 C   0  0  0  0  0  0  0  0  0  0  0  0
   34.3067   37.0366   22.5109 C   0  0  0  0  0  0  0  0  0  0  0  0
   34.8522   39.2088   21.6169 C   0  0  0  0  0  0  0  0  0  0  0  0
   35.1646   35.7815   20.1251 C   0  0  3  0  0  0  0  0  0  0  0  0
   36.2931   35.6640   18.0028 C   0  0  0  0  0  0  0  0  0  0  0  0
   33.6690   34.8315   23.4618 C   0  0  0  0  0  0  0  0  0  0  0  0
   38.1961   36.1968   19.3280 F   0  0  0  0  0  0  0  0  0  0  0  0
   35.6498   35.0616   19.0536 O   0  0  0  0  0  0  0  0  0  0  0  0
   34.4789   39.7925   22.7772 N   0  0  0  0  0  0  0  0  0  0  0  0
   34.3290   33.7761   21.0235 O   0  0  0  0  0  0  0  0  0  0  0  0
   34.2121   35.6181   22.3415 N   0  0  0  0  0  0  0  0  0  0  0  0
   33.9306   37.6499   23.6560 N   0  0  0  0  0  0  0  0  0  0  0  0
   33.6717   39.5652   24.9268 N   0  0  0  0  0  0  0  0  0  0  0  0
   38.2365   37.2743   14.7019 F   0  0  0  0  0  0  0  0  0  0  0  0
   33.6752   39.6520   27.3409 C   0  0  0  0  0  0  0  0  0  0  0  0
   33.5527   39.5830   30.0407 C   0  0  0  0  0  0  0  0  0  0  0  0
   33.0280   38.8532   28.8398 S   0  0  0  0  0  0  0  0  0  0  0  0
   31.5525   38.9898   28.8329 O   0  0  0  0  0  0  0  0  0  0  0  0
   33.5502   37.4673   28.8828 O   0  0  0  0  0  0  0  0  0  0  0  0
   39.2681   37.0971   17.1136 H   0  0  0  0  0  0  0  0  0  0  0  0
   32.0569   38.9685   26.1270 H   0  0  0  0  0  0  0  0  0  0  0  0
   33.4857   37.8804   26.1640 H   0  0  0  0  0  0  0  0  0  0  0  0
   35.6644   37.6998   19.4174 H   0  0  0  0  0  0  0  0  0  0  0  0
   35.8354   36.2327   14.6614 H   0  0  0  0  0  0  0  0  0  0  0  0
   34.6837   35.2474   16.6272 H   0  0  0  0  0  0  0  0  0  0  0  0
   35.1976   39.8294   20.8033 H   0  0  0  0  0  0  0  0  0  0  0  0
   34.1907   35.8815   19.6236 H   0  0  0  0  0  0  0  0  0  0  0  0
   33.4566   35.4988   24.3101 H   0  0  0  0  0  0  0  0  0  0  0  0
   32.7402   34.3349   23.1446 H   0  0  0  0  0  0  0  0  0  0  0  0
   34.4045   34.0728   23.7675 H   0  0  0  0  0  0  0  0  0  0  0  0
   34.7745   39.6130   27.3487 H   0  0  0  0  0  0  0  0  0  0  0  0
   33.3457   40.7011   27.3117 H   0  0  0  0  0  0  0  0  0  0  0  0
   33.1679   39.1088   30.9556 H   0  0  0  0  0  0  0  0  0  0  0  0
   34.6520   39.5438   30.0421 H   0  0  0  0  0  0  0  0  0  0  0  0
   33.2233   40.6319   30.0050 H   0  0  0  0  0  0  0  0  0  0  0  0
  1  3  2  0  0  0  0
  1  8  1  0  0  0  0
  2 13  1  0  0  0  0
  2 19  2  0  0  0  0
  2 20  1  0  0  0  0
  3 14  1  0  0  0  0
  3 16  1  0  0  0  0
  4 18  1  0  0  0  0
  4 21  1  0  0  0  0
  4 22  2  0  0  0  0
  5 22  1  0  0  0  0
  5 24  1  0  0  0  0
  6  7  2  0  0  0  0
  6 11  1  0  0  0  0
  6 12  1  0  0  0  0
  7 13  1  0  0  0  0
  8  9  2  0  0  0  0
  8 23  1  0  0  0  0
  9 10  1  0  0  0  0
 10 14  2  0  0  0  0
 11 20  1  0  0  0  0
 11 21  2  0  0  0  0
 12 18  2  0  0  0  0
 13 17  1  0  0  0  0
 14 17  1  0  0  0  0
 15 20  1  0  0  0  0
 24 26  1  0  0  0  0
 25 26  1  0  0  0  0
 26 27  2  0  0  0  0
 26 28  2  0  0  0  0
  1 29  1  0  0  0  0
  5 30  1  0  0  0  0
  5 31  1  0  0  0  0
  7 32  1  0  0  0  0
  9 33  1  0  0  0  0
 10 34  1  0  0  0  0
 12 35  1  0  0  0  0
 13 36  1  0  0  0  0
 15 37  1  0  0  0  0
 15 38  1  0  0  0  0
 15 39  1  0  0  0  0
 24 40  1  0  0  0  0
 24 41  1  0  0  0  0
 25 42  1  0  0  0  0
 25 43  1  0  0  0  0
 25 44  1  0  0  0  0
M  END
> <r_user_dG.exp>
-9.064

$$$$
