p38a_3flz
  -OEChem-05162309453D
 Structure written by MMmdl.
 46 49  0     0  0  0  0  0  0999 V2000
   35.5410   34.9770   19.0020 O   0  0  0  0  0  0  0  0  0  0  0  0
   35.2381   37.0312   20.2150 C   0  0  0  0  0  0  0  0  0  0  0  0
   34.0764   36.9949   22.3869 C   0  0  0  0  0  0  0  0  0  0  0  0
   34.7541   37.7332   21.3955 C   0  0  0  0  0  0  0  0  0  0  0  0
   34.9549   39.1098   21.6309 C   0  0  0  0  0  0  0  0  0  0  0  0
   33.9384   38.9146   23.6636 C   0  0  0  0  0  0  0  0  0  0  0  0
   35.0645   35.6968   20.0743 C   0  0  0  0  0  0  0  0  0  0  0  0
   36.3624   35.5471   18.0621 C   0  0  0  0  0  0  0  0  0  0  0  0
   33.0864   34.8683   23.1909 C   0  0  0  0  0  0  0  0  0  0  0  0
   33.5064   39.5490   27.3259 C   0  0  0  0  0  0  0  0  0  0  0  0
   35.8921   35.7389   16.7478 C   0  0  0  0  0  0  0  0  0  0  0  0
   38.0806   36.5759   16.0760 C   0  0  0  0  0  0  0  0  0  0  0  0
   36.7488   36.2542   15.7562 C   0  0  0  0  0  0  0  0  0  0  0  0
   38.5585   36.3724   17.3849 C   0  0  0  0  0  0  0  0  0  0  0  0
   34.2139   33.6973   20.9781 O   0  0  0  0  0  0  0  0  0  0  0  0
   34.3461   34.9166   21.0904 C   0  0  0  0  0  0  0  0  0  0  0  0
   37.6988   35.8680   18.3785 C   0  0  0  0  0  0  0  0  0  0  0  0
   34.5481   39.7018   22.7746 N   0  0  0  0  0  0  0  0  0  0  0  0
   33.8517   35.5974   22.1657 N   0  0  0  0  0  0  0  0  0  0  0  0
   33.6772   37.6157   23.5208 N   0  0  0  0  0  0  0  0  0  0  0  0
   33.5515   39.5037   24.8493 N   0  0  0  0  0  0  0  0  0  0  0  0
   33.0326   38.8504   26.0442 C   0  0  0  0  0  0  0  0  0  0  0  0
   31.4988   38.8068   26.0424 C   0  0  0  0  0  0  0  0  0  0  0  0
   30.9892   38.1529   27.3378 C   0  0  0  0  0  0  0  0  0  0  0  0
   31.4825   38.8627   28.4691 O   0  0  0  0  0  0  0  0  0  0  0  0
   32.9035   38.8579   28.5588 C   0  0  0  0  0  0  0  0  0  0  0  0
   35.7444   37.5853   19.4384 H   0  0  0  0  0  0  0  0  0  0  0  0
   35.4469   39.7059   20.8766 H   0  0  0  0  0  0  0  0  0  0  0  0
   32.9896   33.8131   22.8956 H   0  0  0  0  0  0  0  0  0  0  0  0
   33.6118   34.9324   24.1552 H   0  0  0  0  0  0  0  0  0  0  0  0
   32.0859   35.3150   23.2881 H   0  0  0  0  0  0  0  0  0  0  0  0
   34.6039   39.5004   27.3821 H   0  0  0  0  0  0  0  0  0  0  0  0
   33.1865   40.6013   27.3061 H   0  0  0  0  0  0  0  0  0  0  0  0
   34.8708   35.4898   16.5001 H   0  0  0  0  0  0  0  0  0  0  0  0
   38.7361   36.9787   15.3180 H   0  0  0  0  0  0  0  0  0  0  0  0
   36.3837   36.4024   14.7506 H   0  0  0  0  0  0  0  0  0  0  0  0
   39.5854   36.6035   17.6264 H   0  0  0  0  0  0  0  0  0  0  0  0
   38.0632   35.7264   19.3853 H   0  0  0  0  0  0  0  0  0  0  0  0
   34.3614   39.9997   25.1625 H   0  0  0  0  0  0  0  0  0  0  0  0
   33.3995   37.8137   26.0698 H   0  0  0  0  0  0  0  0  0  0  0  0
   31.1054   39.8317   25.9726 H   0  0  0  0  0  0  0  0  0  0  0  0
   31.1521   38.2213   25.1781 H   0  0  0  0  0  0  0  0  0  0  0  0
   29.8894   38.1720   27.3471 H   0  0  0  0  0  0  0  0  0  0  0  0
   31.3382   37.1106   27.3813 H   0  0  0  0  0  0  0  0  0  0  0  0
   33.2626   37.8193   28.6071 H   0  0  0  0  0  0  0  0  0  0  0  0
   33.2137   39.3957   29.4668 H   0  0  0  0  0  0  0  0  0  0  0  0
  1  7  1  0  0  0  0
  1  8  1  0  0  0  0
  2  4  1  0  0  0  0
  2  7  2  0  0  0  0
  3  4  2  0  0  0  0
  3 19  1  0  0  0  0
  3 20  1  0  0  0  0
  4  5  1  0  0  0  0
  5 18  2  0  0  0  0
  6 18  1  0  0  0  0
  6 20  2  0  0  0  0
  6 21  1  0  0  0  0
  7 16  1  0  0  0  0
  8 11  2  0  0  0  0
  8 17  1  0  0  0  0
  9 19  1  0  0  0  0
 10 22  1  0  0  0  0
 10 26  1  0  0  0  0
 11 13  1  0  0  0  0
 12 13  2  0  0  0  0
 12 14  1  0  0  0  0
 14 17  2  0  0  0  0
 15 16  2  0  0  0  0
 16 19  1  0  0  0  0
 21 22  1  0  0  0  0
 22 23  1  0  0  0  0
 23 24  1  0  0  0  0
 24 25  1  0  0  0  0
 25 26  1  0  0  0  0
  2 27  1  0  0  0  0
  5 28  1  0  0  0  0
  9 29  1  0  0  0  0
  9 30  1  0  0  0  0
  9 31  1  0  0  0  0
 10 32  1  0  0  0  0
 10 33  1  0  0  0  0
 11 34  1  0  0  0  0
 12 35  1  0  0  0  0
 13 36  1  0  0  0  0
 14 37  1  0  0  0  0
 17 38  1  0  0  0  0
 21 39  1  0  0  0  0
 22 40  1  0  0  0  0
 23 41  1  0  0  0  0
 23 42  1  0  0  0  0
 24 43  1  0  0  0  0
 24 44  1  0  0  0  0
 26 45  1  0  0  0  0
 26 46  1  0  0  0  0
M  END
> <r_user_dG.exp>
-9.4871

$$$$
p38a_3flz
  -OEChem-05162309453D
 Structure written by MMmdl.
 46 49  0     0  0  0  0  0  0999 V2000
   35.5410   34.9770   19.0020 O   0  0  0  0  0  0  0  0  0  0  0  0
   35.2381   37.0312   20.2150 C   0  0  0  0  0  0  0  0  0  0  0  0
   34.0764   36.9949   22.3869 C   0  0  0  0  0  0  0  0  0  0  0  0
   34.7541   37.7332   21.3955 C   0  0  0  0  0  0  0  0  0  0  0  0
   34.9549   39.1098   21.6309 C   0  0  0  0  0  0  0  0  0  0  0  0
   33.9384   38.9146   23.6636 C   0  0  0  0  0  0  0  0  0  0  0  0
   35.0645   35.6968   20.0743 C   0  0  0  0  0  0  0  0  0  0  0  0
   36.3624   35.5471   18.0621 C   0  0  0  0  0  0  0  0  0  0  0  0
   33.0864   34.8683   23.1909 C   0  0  0  0  0  0  0  0  0  0  0  0
   33.5064   39.5490   27.3259 C   0  0  0  0  0  0  0  0  0  0  0  0
   35.8921   35.7389   16.7478 C   0  0  0  0  0  0  0  0  0  0  0  0
   38.0806   36.5759   16.0760 C   0  0  0  0  0  0  0  0  0  0  0  0
   36.7488   36.2542   15.7562 C   0  0  0  0  0  0  0  0  0  0  0  0
   38.5585   36.3724   17.3849 C   0  0  0  0  0  0  0  0  0  0  0  0
   34.2139   33.6973   20.9781 O   0  0  0  0  0  0  0  0  0  0  0  0
   34.3461   34.9166   21.0904 C   0  0  0  0  0  0  0  0  0  0  0  0
   37.6988   35.8680   18.3785 C   0  0  0  0  0  0  0  0  0  0  0  0
   34.5481   39.7018   22.7746 N   0  0  0  0  0  0  0  0  0  0  0  0
   33.8517   35.5974   22.1657 N   0  0  0  0  0  0  0  0  0  0  0  0
   33.6772   37.6157   23.5208 N   0  0  0  0  0  0  0  0  0  0  0  0
   33.5515   39.5037   24.8493 N   0  0  0  0  0  0  0  0  0  0  0  0
   33.0326   38.8504   26.0442 C   0  0  0  0  0  0  0  0  0  0  0  0
   31.4988   38.8068   26.0424 C   0  0  0  0  0  0  0  0  0  0  0  0
   30.9892   38.1529   27.3378 C   0  0  0  0  0  0  0  0  0  0  0  0
   31.4825   38.8627   28.4691 O   0  0  0  0  0  0  0  0  0  0  0  0
   32.9035   38.8579   28.5588 C   0  0  0  0  0  0  0  0  0  0  0  0
   35.7444   37.5853   19.4384 H   0  0  0  0  0  0  0  0  0  0  0  0
   35.4469   39.7059   20.8766 H   0  0  0  0  0  0  0  0  0  0  0  0
   32.9896   33.8131   22.8956 H   0  0  0  0  0  0  0  0  0  0  0  0
   33.6118   34.9324   24.1552 H   0  0  0  0  0  0  0  0  0  0  0  0
   32.0859   35.3150   23.2881 H   0  0  0  0  0  0  0  0  0  0  0  0
   34.6039   39.5004   27.3821 H   0  0  0  0  0  0  0  0  0  0  0  0
   33.1865   40.6013   27.3061 H   0  0  0  0  0  0  0  0  0  0  0  0
   34.8708   35.4898   16.5001 H   0  0  0  0  0  0  0  0  0  0  0  0
   38.7361   36.9787   15.3180 H   0  0  0  0  0  0  0  0  0  0  0  0
   36.3837   36.4024   14.7506 H   0  0  0  0  0  0  0  0  0  0  0  0
   39.5854   36.6035   17.6264 H   0  0  0  0  0  0  0  0  0  0  0  0
   38.0632   35.7264   19.3853 H   0  0  0  0  0  0  0  0  0  0  0  0
   33.1960   37.1102   24.2370 H   0  0  0  0  0  0  0  0  0  0  0  0
   33.3995   37.8137   26.0698 H   0  0  0  0  0  0  0  0  0  0  0  0
   31.1054   39.8317   25.9726 H   0  0  0  0  0  0  0  0  0  0  0  0
   31.1521   38.2213   25.1781 H   0  0  0  0  0  0  0  0  0  0  0  0
   29.8894   38.1720   27.3471 H   0  0  0  0  0  0  0  0  0  0  0  0
   31.3382   37.1106   27.3813 H   0  0  0  0  0  0  0  0  0  0  0  0
   33.2626   37.8193   28.6071 H   0  0  0  0  0  0  0  0  0  0  0  0
   33.2137   39.3957   29.4668 H   0  0  0  0  0  0  0  0  0  0  0  0
  1  7  1  0  0  0  0
  1  8  1  0  0  0  0
  2  4  1  0  0  0  0
  2  7  2  0  0  0  0
  3  4  2  0  0  0  0
  3 19  1  0  0  0  0
  3 20  1  0  0  0  0
  4  5  1  0  0  0  0
  5 18  2  0  0  0  0
  6 18  1  0  0  0  0
  6 20  1  0  0  0  0
  6 21  2  0  0  0  0
  7 16  1  0  0  0  0
  8 11  2  0  0  0  0
  8 17  1  0  0  0  0
  9 19  1  0  0  0  0
 10 22  1  0  0  0  0
 10 26  1  0  0  0  0
 11 13  1  0  0  0  0
 12 13  2  0  0  0  0
 12 14  1  0  0  0  0
 14 17  2  0  0  0  0
 15 16  2  0  0  0  0
 16 19  1  0  0  0  0
 21 22  1  0  0  0  0
 22 23  1  0  0  0  0
 23 24  1  0  0  0  0
 24 25  1  0  0  0  0
 25 26  1  0  0  0  0
  2 27  1  0  0  0  0
  5 28  1  0  0  0  0
  9 29  1  0  0  0  0
  9 30  1  0  0  0  0
  9 31  1  0  0  0  0
 10 32  1  0  0  0  0
 10 33  1  0  0  0  0
 11 34  1  0  0  0  0
 12 35  1  0  0  0  0
 13 36  1  0  0  0  0
 14 37  1  0  0  0  0
 17 38  1  0  0  0  0
 20 39  1  0  0  0  0
 22 40  1  0  0  0  0
 23 41  1  0  0  0  0
 23 42  1  0  0  0  0
 24 43  1  0  0  0  0
 24 44  1  0  0  0  0
 26 45  1  0  0  0  0
 26 46  1  0  0  0  0
M  END
> <r_user_dG.exp>
-9.4871

$$$$
p38a_3flz
  -OEChem-05162309453D
 Structure written by MMmdl.
 46 49  0     0  0  0  0  0  0999 V2000
   35.5410   34.9770   19.0020 O   0  0  0  0  0  0  0  0  0  0  0  0
   35.2381   37.0312   20.2150 C   0  0  0  0  0  0  0  0  0  0  0  0
   34.0764   36.9949   22.3869 C   0  0  0  0  0  0  0  0  0  0  0  0
   34.7541   37.7332   21.3955 C   0  0  0  0  0  0  0  0  0  0  0  0
   34.9549   39.1098   21.6309 C   0  0  0  0  0  0  0  0  0  0  0  0
   33.9384   38.9146   23.6636 C   0  0  0  0  0  0  0  0  0  0  0  0
   35.0645   35.6968   20.0743 C   0  0  0  0  0  0  0  0  0  0  0  0
   36.3624   35.5471   18.0621 C   0  0  0  0  0  0  0  0  0  0  0  0
   33.0864   34.8683   23.1909 C   0  0  0  0  0  0  0  0  0  0  0  0
   33.5064   39.5490   27.3259 C   0  0  0  0  0  0  0  0  0  0  0  0
   35.8921   35.7389   16.7478 C   0  0  0  0  0  0  0  0  0  0  0  0
   38.0806   36.5759   16.0760 C   0  0  0  0  0  0  0  0  0  0  0  0
   36.7488   36.2542   15.7562 C   0  0  0  0  0  0  0  0  0  0  0  0
   38.5585   36.3724   17.3849 C   0  0  0  0  0  0  0  0  0  0  0  0
   34.2139   33.6973   20.9781 O   0  0  0  0  0  0  0  0  0  0  0  0
   34.3461   34.9166   21.0904 C   0  0  0  0  0  0  0  0  0  0  0  0
   37.6988   35.8680   18.3785 C   0  0  0  0  0  0  0  0  0  0  0  0
   34.5481   39.7018   22.7746 N   0  0  0  0  0  0  0  0  0  0  0  0
   33.8517   35.5974   22.1657 N   0  0  0  0  0  0  0  0  0  0  0  0
   33.6772   37.6157   23.5208 N   0  0  0  0  0  0  0  0  0  0  0  0
   33.5515   39.5037   24.8493 N   0  0  0  0  0  0  0  0  0  0  0  0
   33.0326   38.8504   26.0442 C   0  0  0  0  0  0  0  0  0  0  0  0
   31.4988   38.8068   26.0424 C   0  0  0  0  0  0  0  0  0  0  0  0
   30.9892   38.1529   27.3378 C   0  0  0  0  0  0  0  0  0  0  0  0
   31.4825   38.8627   28.4691 O   0  0  0  0  0  0  0  0  0  0  0  0
   32.9035   38.8579   28.5588 C   0  0  0  0  0  0  0  0  0  0  0  0
   35.7444   37.5853   19.4384 H   0  0  0  0  0  0  0  0  0  0  0  0
   35.4469   39.7059   20.8766 H   0  0  0  0  0  0  0  0  0  0  0  0
   32.9896   33.8131   22.8956 H   0  0  0  0  0  0  0  0  0  0  0  0
   33.6118   34.9324   24.1552 H   0  0  0  0  0  0  0  0  0  0  0  0
   32.0859   35.3150   23.2881 H   0  0  0  0  0  0  0  0  0  0  0  0
   34.6039   39.5004   27.3821 H   0  0  0  0  0  0  0  0  0  0  0  0
   33.1865   40.6013   27.3061 H   0  0  0  0  0  0  0  0  0  0  0  0
   34.8708   35.4898   16.5001 H   0  0  0  0  0  0  0  0  0  0  0  0
   38.7361   36.9787   15.3180 H   0  0  0  0  0  0  0  0  0  0  0  0
   36.3837   36.4024   14.7506 H   0  0  0  0  0  0  0  0  0  0  0  0
   39.5854   36.6035   17.6264 H   0  0  0  0  0  0  0  0  0  0  0  0
   38.0632   35.7264   19.3853 H   0  0  0  0  0  0  0  0  0  0  0  0
   34.6955   40.6759   22.9459 H   0  0  0  0  0  0  0  0  0  0  0  0
   33.3995   37.8137   26.0698 H   0  0  0  0  0  0  0  0  0  0  0  0
   31.1054   39.8317   25.9726 H   0  0  0  0  0  0  0  0  0  0  0  0
   31.1521   38.2213   25.1781 H   0  0  0  0  0  0  0  0  0  0  0  0
   29.8894   38.1720   27.3471 H   0  0  0  0  0  0  0  0  0  0  0  0
   31.3382   37.1106   27.3813 H   0  0  0  0  0  0  0  0  0  0  0  0
   33.2626   37.8193   28.6071 H   0  0  0  0  0  0  0  0  0  0  0  0
   33.2137   39.3957   29.4668 H   0  0  0  0  0  0  0  0  0  0  0  0
  1  7  1  0  0  0  0
  1  8  1  0  0  0  0
  2  4  1  0  0  0  0
  2  7  2  0  0  0  0
  3  4  1  0  0  0  0
  3 19  1  0  0  0  0
  3 20  2  0  0  0  0
  4  5  2  0  0  0  0
  5 18  1  0  0  0  0
  6 18  1  0  0  0  0
  6 20  1  0  0  0  0
  6 21  2  0  0  0  0
  7 16  1  0  0  0  0
  8 11  2  0  0  0  0
  8 17  1  0  0  0  0
  9 19  1  0  0  0  0
 10 22  1  0  0  0  0
 10 26  1  0  0  0  0
 11 13  1  0  0  0  0
 12 13  2  0  0  0  0
 12 14  1  0  0  0  0
 14 17  2  0  0  0  0
 15 16  2  0  0  0  0
 16 19  1  0  0  0  0
 21 22  1  0  0  0  0
 22 23  1  0  0  0  0
 23 24  1  0  0  0  0
 24 25  1  0  0  0  0
 25 26  1  0  0  0  0
  2 27  1  0  0  0  0
  5 28  1  0  0  0  0
  9 29  1  0  0  0  0
  9 30  1  0  0  0  0
  9 31  1  0  0  0  0
 10 32  1  0  0  0  0
 10 33  1  0  0  0  0
 11 34  1  0  0  0  0
 12 35  1  0  0  0  0
 13 36  1  0  0  0  0
 14 37  1  0  0  0  0
 17 38  1  0  0  0  0
 18 39  1  0  0  0  0
 22 40  1  0  0  0  0
 23 41  1  0  0  0  0
 23 42  1  0  0  0  0
 24 43  1  0  0  0  0
 24 44  1  0  0  0  0
 26 45  1  0  0  0  0
 26 46  1  0  0  0  0
M  END
> <r_user_dG.exp>
-9.4871

$$$$
p38a_3flz
  -OEChem-05162309453D
 Structure written by MMmdl.
 46 49  0     0  0  0  0  0  0999 V2000
   35.5410   34.9770   19.0020 O   0  0  0  0  0  0  0  0  0  0  0  0
   35.2381   37.0312   20.2150 C   0  0  0  0  0  0  0  0  0  0  0  0
   34.0764   36.9949   22.3869 C   0  0  0  0  0  0  0  0  0  0  0  0
   34.7541   37.7332   21.3955 C   0  0  0  0  0  0  0  0  0  0  0  0
   34.9549   39.1098   21.6309 C   0  0  0  0  0  0  0  0  0  0  0  0
   33.9384   38.9146   23.6636 C   0  0  0  0  0  0  0  0  0  0  0  0
   35.0645   35.6968   20.0743 C   0  0  0  0  0  0  0  0  0  0  0  0
   36.3624   35.5471   18.0621 C   0  0  0  0  0  0  0  0  0  0  0  0
   33.0864   34.8683   23.1909 C   0  0  0  0  0  0  0  0  0  0  0  0
   33.5064   39.5490   27.3259 C   0  0  0  0  0  0  0  0  0  0  0  0
   35.8921   35.7389   16.7478 C   0  0  0  0  0  0  0  0  0  0  0  0
   38.0806   36.5759   16.0760 C   0  0  0  0  0  0  0  0  0  0  0  0
   36.7488   36.2542   15.7562 C   0  0  0  0  0  0  0  0  0  0  0  0
   38.5585   36.3724   17.3849 C   0  0  0  0  0  0  0  0  0  0  0  0
   34.2139   33.6973   20.9781 O   0  0  0  0  0  0  0  0  0  0  0  0
   34.3461   34.9166   21.0904 C   0  0  0  0  0  0  0  0  0  0  0  0
   37.6988   35.8680   18.3785 C   0  0  0  0  0  0  0  0  0  0  0  0
   34.5481   39.7018   22.7746 N   0  0  0  0  0  0  0  0  0  0  0  0
   33.8517   35.5974   22.1657 N   0  0  0  0  0  0  0  0  0  0  0  0
   33.6772   37.6157   23.5208 N   0  0  0  0  0  0  0  0  0  0  0  0
   33.5515   39.5037   24.8493 N   0  0  0  0  0  0  0  0  0  0  0  0
   33.0326   38.8504   26.0442 C   0  0  0  0  0  0  0  0  0  0  0  0
   31.4988   38.8068   26.0424 C   0  0  0  0  0  0  0  0  0  0  0  0
   30.9892   38.1529   27.3378 C   0  0  0  0  0  0  0  0  0  0  0  0
   31.4825   38.8627   28.4691 O   0  0  0  0  0  0  0  0  0  0  0  0
   32.9035   38.8579   28.5588 C   0  0  0  0  0  0  0  0  0  0  0  0
   35.7444   37.5853   19.4384 H   0  0  0  0  0  0  0  0  0  0  0  0
   35.4469   39.7059   20.8766 H   0  0  0  0  0  0  0  0  0  0  0  0
   32.9896   33.8131   22.8956 H   0  0  0  0  0  0  0  0  0  0  0  0
   33.6118   34.9324   24.1552 H   0  0  0  0  0  0  0  0  0  0  0  0
   32.0859   35.3150   23.2881 H   0  0  0  0  0  0  0  0  0  0  0  0
   34.6039   39.5004   27.3821 H   0  0  0  0  0  0  0  0  0  0  0  0
   33.1865   40.6013   27.3061 H   0  0  0  0  0  0  0  0  0  0  0  0
   34.8708   35.4898   16.5001 H   0  0  0  0  0  0  0  0  0  0  0  0
   38.7361   36.9787   15.3180 H   0  0  0  0  0  0  0  0  0  0  0  0
   36.3837   36.4024   14.7506 H   0  0  0  0  0  0  0  0  0  0  0  0
   39.5854   36.6035   17.6264 H   0  0  0  0  0  0  0  0  0  0  0  0
   33.7266   33.3614   21.7212 H   0  0  0  0  0  0  0  0  0  0  0  0
   38.0632   35.7264   19.3853 H   0  0  0  0  0  0  0  0  0  0  0  0
   33.3995   37.8137   26.0698 H   0  0  0  0  0  0  0  0  0  0  0  0
   31.1054   39.8317   25.9726 H   0  0  0  0  0  0  0  0  0  0  0  0
   31.1521   38.2213   25.1781 H   0  0  0  0  0  0  0  0  0  0  0  0
   29.8894   38.1720   27.3471 H   0  0  0  0  0  0  0  0  0  0  0  0
   31.3382   37.1106   27.3813 H   0  0  0  0  0  0  0  0  0  0  0  0
   33.2626   37.8193   28.6071 H   0  0  0  0  0  0  0  0  0  0  0  0
   33.2137   39.3957   29.4668 H   0  0  0  0  0  0  0  0  0  0  0  0
  1  7  1  0  0  0  0
  1  8  1  0  0  0  0
  2  4  2  0  0  0  0
  2  7  1  0  0  0  0
  3  4  1  0  0  0  0
  3 19  1  0  0  0  0
  3 20  2  0  0  0  0
  4  5  1  0  0  0  0
  5 18  2  0  0  0  0
  6 18  1  0  0  0  0
  6 20  1  0  0  0  0
  6 21  2  0  0  0  0
  7 16  2  0  0  0  0
  8 11  2  0  0  0  0
  8 17  1  0  0  0  0
  9 19  1  0  0  0  0
 10 22  1  0  0  0  0
 10 26  1  0  0  0  0
 11 13  1  0  0  0  0
 12 13  2  0  0  0  0
 12 14  1  0  0  0  0
 14 17  2  0  0  0  0
 15 16  1  0  0  0  0
 16 19  1  0  0  0  0
 21 22  1  0  0  0  0
 22 23  1  0  0  0  0
 23 24  1  0  0  0  0
 24 25  1  0  0  0  0
 25 26  1  0  0  0  0
  2 27  1  0  0  0  0
  5 28  1  0  0  0  0
  9 29  1  0  0  0  0
  9 30  1  0  0  0  0
  9 31  1  0  0  0  0
 10 32  1  0  0  0  0
 10 33  1  0  0  0  0
 11 34  1  0  0  0  0
 12 35  1  0  0  0  0
 13 36  1  0  0  0  0
 14 37  1  0  0  0  0
 15 38  1  0  0  0  0
 17 39  1  0  0  0  0
 22 40  1  0  0  0  0
 23 41  1  0  0  0  0
 23 42  1  0  0  0  0
 24 43  1  0  0  0  0
 24 44  1  0  0  0  0
 26 45  1  0  0  0  0
 26 46  1  0  0  0  0
M  END
> <r_user_dG.exp>
-9.4871

$$$$
p38a_3flz
  -OEChem-05162309453D
 Structure written by MMmdl.
 46 49  0     1  0  0  0  0  0999 V2000
   35.5410   34.9770   19.0020 O   0  0  0  0  0  0  0  0  0  0  0  0
   35.2381   37.0312   20.2150 C   0  0  0  0  0  0  0  0  0  0  0  0
   34.0764   36.9949   22.3869 C   0  0  0  0  0  0  0  0  0  0  0  0
   34.7541   37.7332   21.3955 C   0  0  3  0  0  0  0  0  0  0  0  0
   34.9549   39.1098   21.6309 C   0  0  0  0  0  0  0  0  0  0  0  0
   33.9384   38.9146   23.6636 C   0  0  0  0  0  0  0  0  0  0  0  0
   35.0645   35.6968   20.0743 C   0  0  0  0  0  0  0  0  0  0  0  0
   36.3624   35.5471   18.0621 C   0  0  0  0  0  0  0  0  0  0  0  0
   33.0864   34.8683   23.1909 C   0  0  0  0  0  0  0  0  0  0  0  0
   33.5064   39.5490   27.3259 C   0  0  0  0  0  0  0  0  0  0  0  0
   35.8921   35.7389   16.7478 C   0  0  0  0  0  0  0  0  0  0  0  0
   38.0806   36.5759   16.0760 C   0  0  0  0  0  0  0  0  0  0  0  0
   36.7488   36.2542   15.7562 C   0  0  0  0  0  0  0  0  0  0  0  0
   38.5585   36.3724   17.3849 C   0  0  0  0  0  0  0  0  0  0  0  0
   34.2139   33.6973   20.9781 O   0  0  0  0  0  0  0  0  0  0  0  0
   34.3461   34.9166   21.0904 C   0  0  0  0  0  0  0  0  0  0  0  0
   37.6988   35.8680   18.3785 C   0  0  0  0  0  0  0  0  0  0  0  0
   34.5481   39.7018   22.7746 N   0  0  0  0  0  0  0  0  0  0  0  0
   33.8517   35.5974   22.1657 N   0  0  0  0  0  0  0  0  0  0  0  0
   33.6772   37.6157   23.5208 N   0  0  0  0  0  0  0  0  0  0  0  0
   33.5515   39.5037   24.8493 N   0  0  0  0  0  0  0  0  0  0  0  0
   33.0326   38.8504   26.0442 C   0  0  0  0  0  0  0  0  0  0  0  0
   31.4988   38.8068   26.0424 C   0  0  0  0  0  0  0  0  0  0  0  0
   30.9892   38.1529   27.3378 C   0  0  0  0  0  0  0  0  0  0  0  0
   31.4825   38.8627   28.4691 O   0  0  0  0  0  0  0  0  0  0  0  0
   32.9035   38.8579   28.5588 C   0  0  0  0  0  0  0  0  0  0  0  0
   35.7444   37.5853   19.4384 H   0  0  0  0  0  0  0  0  0  0  0  0
   33.8013   37.9481   20.8895 H   0  0  0  0  0  0  0  0  0  0  0  0
   35.4469   39.7059   20.8766 H   0  0  0  0  0  0  0  0  0  0  0  0
   32.9896   33.8131   22.8956 H   0  0  0  0  0  0  0  0  0  0  0  0
   33.6118   34.9324   24.1552 H   0  0  0  0  0  0  0  0  0  0  0  0
   32.0859   35.3150   23.2881 H   0  0  0  0  0  0  0  0  0  0  0  0
   34.6039   39.5004   27.3821 H   0  0  0  0  0  0  0  0  0  0  0  0
   33.1865   40.6013   27.3061 H   0  0  0  0  0  0  0  0  0  0  0  0
   34.8708   35.4898   16.5001 H   0  0  0  0  0  0  0  0  0  0  0  0
   38.7361   36.9787   15.3180 H   0  0  0  0  0  0  0  0  0  0  0  0
   36.3837   36.4024   14.7506 H   0  0  0  0  0  0  0  0  0  0  0  0
   39.5854   36.6035   17.6264 H   0  0  0  0  0  0  0  0  0  0  0  0
   38.0632   35.7264   19.3853 H   0  0  0  0  0  0  0  0  0  0  0  0
   33.3995   37.8137   26.0698 H   0  0  0  0  0  0  0  0  0  0  0  0
   31.1054   39.8317   25.9726 H   0  0  0  0  0  0  0  0  0  0  0  0
   31.1521   38.2213   25.1781 H   0  0  0  0  0  0  0  0  0  0  0  0
   29.8894   38.1720   27.3471 H   0  0  0  0  0  0  0  0  0  0  0  0
   31.3382   37.1106   27.3813 H   0  0  0  0  0  0  0  0  0  0  0  0
   33.2626   37.8193   28.6071 H   0  0  0  0  0  0  0  0  0  0  0  0
   33.2137   39.3957   29.4668 H   0  0  0  0  0  0  0  0  0  0  0  0
  1  7  1  0  0  0  0
  1  8  1  0  0  0  0
  2  4  1  0  0  0  0
  2  7  2  0  0  0  0
  3  4  1  0  0  0  0
  3 19  1  0  0  0  0
  3 20  2  0  0  0  0
  4  5  1  0  0  0  0
  5 18  2  0  0  0  0
  6 18  1  0  0  0  0
  6 20  1  0  0  0  0
  6 21  2  0  0  0  0
  7 16  1  0  0  0  0
  8 11  2  0  0  0  0
  8 17  1  0  0  0  0
  9 19  1  0  0  0  0
 10 22  1  0  0  0  0
 10 26  1  0  0  0  0
 11 13  1  0  0  0  0
 12 13  2  0  0  0  0
 12 14  1  0  0  0  0
 14 17  2  0  0  0  0
 15 16  2  0  0  0  0
 16 19  1  0  0  0  0
 21 22  1  0  0  0  0
 22 23  1  0  0  0  0
 23 24  1  0  0  0  0
 24 25  1  0  0  0  0
 25 26  1  0  0  0  0
  2 27  1  0  0  0  0
  4 28  1  0  0  0  0
  5 29  1  0  0  0  0
  9 30  1  0  0  0  0
  9 31  1  0  0  0  0
  9 32  1  0  0  0  0
 10 33  1  0  0  0  0
 10 34  1  0  0  0  0
 11 35  1  0  0  0  0
 12 36  1  0  0  0  0
 13 37  1  0  0  0  0
 14 38  1  0  0  0  0
 17 39  1  0  0  0  0
 22 40  1  0  0  0  0
 23 41  1  0  0  0  0
 23 42  1  0  0  0  0
 24 43  1  0  0  0  0
 24 44  1  0  0  0  0
 26 45  1  0  0  0  0
 26 46  1  0  0  0  0
M  END
> <r_user_dG.exp>
-9.4871

$$$$
p38a_3flz
  -OEChem-05162309453D
 Structure written by MMmdl.
 46 49  0     1  0  0  0  0  0999 V2000
   35.5410   34.9770   19.0020 O   0  0  0  0  0  0  0  0  0  0  0  0
   35.2381   37.0312   20.2150 C   0  0  0  0  0  0  0  0  0  0  0  0
   34.0764   36.9949   22.3869 C   0  0  0  0  0  0  0  0  0  0  0  0
   34.7541   37.7332   21.3955 C   0  0  0  0  0  0  0  0  0  0  0  0
   34.9549   39.1098   21.6309 C   0  0  0  0  0  0  0  0  0  0  0  0
   33.9384   38.9146   23.6636 C   0  0  0  0  0  0  0  0  0  0  0  0
   35.0645   35.6968   20.0743 C   0  0  3  0  0  0  0  0  0  0  0  0
   36.3624   35.5471   18.0621 C   0  0  0  0  0  0  0  0  0  0  0  0
   33.0864   34.8683   23.1909 C   0  0  0  0  0  0  0  0  0  0  0  0
   33.5064   39.5490   27.3259 C   0  0  0  0  0  0  0  0  0  0  0  0
   35.8921   35.7389   16.7478 C   0  0  0  0  0  0  0  0  0  0  0  0
   38.0806   36.5759   16.0760 C   0  0  0  0  0  0  0  0  0  0  0  0
   36.7488   36.2542   15.7562 C   0  0  0  0  0  0  0  0  0  0  0  0
   38.5585   36.3724   17.3849 C   0  0  0  0  0  0  0  0  0  0  0  0
   34.2139   33.6973   20.9781 O   0  0  0  0  0  0  0  0  0  0  0  0
   34.3461   34.9166   21.0904 C   0  0  0  0  0  0  0  0  0  0  0  0
   37.6988   35.8680   18.3785 C   0  0  0  0  0  0  0  0  0  0  0  0
   34.5481   39.7018   22.7746 N   0  0  0  0  0  0  0  0  0  0  0  0
   33.8517   35.5974   22.1657 N   0  0  0  0  0  0  0  0  0  0  0  0
   33.6772   37.6157   23.5208 N   0  0  0  0  0  0  0  0  0  0  0  0
   33.5515   39.5037   24.8493 N   0  0  0  0  0  0  0  0  0  0  0  0
   33.0326   38.8504   26.0442 C   0  0  0  0  0  0  0  0  0  0  0  0
   31.4988   38.8068   26.0424 C   0  0  0  0  0  0  0  0  0  0  0  0
   30.9892   38.1529   27.3378 C   0  0  0  0  0  0  0  0  0  0  0  0
   31.4825   38.8627   28.4691 O   0  0  0  0  0  0  0  0  0  0  0  0
   32.9035   38.8579   28.5588 C   0  0  0  0  0  0  0  0  0  0  0  0
   35.7444   37.5853   19.4384 H   0  0  0  0  0  0  0  0  0  0  0  0
   35.4469   39.7059   20.8766 H   0  0  0  0  0  0  0  0  0  0  0  0
   34.1200   35.8736   19.5390 H   0  0  0  0  0  0  0  0  0  0  0  0
   32.9896   33.8131   22.8956 H   0  0  0  0  0  0  0  0  0  0  0  0
   33.6118   34.9324   24.1552 H   0  0  0  0  0  0  0  0  0  0  0  0
   32.0859   35.3150   23.2881 H   0  0  0  0  0  0  0  0  0  0  0  0
   34.6039   39.5004   27.3821 H   0  0  0  0  0  0  0  0  0  0  0  0
   33.1865   40.6013   27.3061 H   0  0  0  0  0  0  0  0  0  0  0  0
   34.8708   35.4898   16.5001 H   0  0  0  0  0  0  0  0  0  0  0  0
   38.7361   36.9787   15.3180 H   0  0  0  0  0  0  0  0  0  0  0  0
   36.3837   36.4024   14.7506 H   0  0  0  0  0  0  0  0  0  0  0  0
   39.5854   36.6035   17.6264 H   0  0  0  0  0  0  0  0  0  0  0  0
   38.0632   35.7264   19.3853 H   0  0  0  0  0  0  0  0  0  0  0  0
   33.3995   37.8137   26.0698 H   0  0  0  0  0  0  0  0  0  0  0  0
   31.1054   39.8317   25.9726 H   0  0  0  0  0  0  0  0  0  0  0  0
   31.1521   38.2213   25.1781 H   0  0  0  0  0  0  0  0  0  0  0  0
   29.8894   38.1720   27.3471 H   0  0  0  0  0  0  0  0  0  0  0  0
   31.3382   37.1106   27.3813 H   0  0  0  0  0  0  0  0  0  0  0  0
   33.2626   37.8193   28.6071 H   0  0  0  0  0  0  0  0  0  0  0  0
   33.2137   39.3957   29.4668 H   0  0  0  0  0  0  0  0  0  0  0  0
  1  7  1  0  0  0  0
  1  8  1  0  0  0  0
  2  4  2  0  0  0  0
  2  7  1  0  0  0  0
  3  4  1  0  0  0  0
  3 19  1  0  0  0  0
  3 20  2  0  0  0  0
  4  5  1  0  0  0  0
  5 18  2  0  0  0  0
  6 18  1  0  0  0  0
  6 20  1  0  0  0  0
  6 21  2  0  0  0  0
  7 16  1  0  0  0  0
  8 11  2  0  0  0  0
  8 17  1  0  0  0  0
  9 19  1  0  0  0  0
 10 22  1  0  0  0  0
 10 26  1  0  0  0  0
 11 13  1  0  0  0  0
 12 13  2  0  0  0  0
 12 14  1  0  0  0  0
 14 17  2  0  0  0  0
 15 16  2  0  0  0  0
 16 19  1  0  0  0  0
 21 22  1  0  0  0  0
 22 23  1  0  0  0  0
 23 24  1  0  0  0  0
 24 25  1  0  0  0  0
 25 26  1  0  0  0  0
  2 27  1  0  0  0  0
  5 28  1  0  0  0  0
  7 29  1  0  0  0  0
  9 30  1  0  0  0  0
  9 31  1  0  0  0  0
  9 32  1  0  0  0  0
 10 33  1  0  0  0  0
 10 34  1  0  0  0  0
 11 35  1  0  0  0  0
 12 36  1  0  0  0  0
 13 37  1  0  0  0  0
 14 38  1  0  0  0  0
 17 39  1  0  0  0  0
 22 40  1  0  0  0  0
 23 41  1  0  0  0  0
 23 42  1  0  0  0  0
 24 43  1  0  0  0  0
 24 44  1  0  0  0  0
 26 45  1  0  0  0  0
 26 46  1  0  0  0  0
M  END
> <r_user_dG.exp>
-9.4871

$$$$
