p38a_3fly
  -OEChem-05162309453D
 Structure written by MMmdl.
 41 43  0     0  0  0  0  0  0999 V2000
   34.9076   39.1154   21.5907 C   0  0  0  0  0  0  0  0  0  0  0  0
   34.0709   36.9986   22.3846 C   0  0  0  0  0  0  0  0  0  0  0  0
   34.4455   39.7277   22.7024 N   0  0  0  0  0  0  0  0  0  0  0  0
   34.7548   37.7275   21.3918 C   0  0  0  0  0  0  0  0  0  0  0  0
   35.2950   37.0103   20.2460 C   0  0  0  0  0  0  0  0  0  0  0  0
   35.1390   35.6721   20.1250 C   0  0  0  0  0  0  0  0  0  0  0  0
   34.3682   34.9095   21.1164 C   0  0  0  0  0  0  0  0  0  0  0  0
   33.8227   38.9512   23.5893 C   0  0  0  0  0  0  0  0  0  0  0  0
   32.6093   38.9831   25.8341 C   0  0  0  0  0  0  0  0  0  0  0  0
   33.0071   39.6254   27.1688 C   0  0  0  0  0  0  0  0  0  0  0  0
   31.1036   39.1058   25.5754 C   0  0  0  0  0  0  0  0  0  0  0  0
   36.3552   35.5188   18.0595 C   0  0  0  0  0  0  0  0  0  0  0  0
   35.7370   35.5446   16.7957 C   0  0  0  0  0  0  0  0  0  0  0  0
   36.4063   36.0920   15.6859 C   0  0  0  0  0  0  0  0  0  0  0  0
   37.7125   36.5912   15.8323 C   0  0  0  0  0  0  0  0  0  0  0  0
   38.3545   36.5250   17.0835 C   0  0  0  0  0  0  0  0  0  0  0  0
   37.6744   36.0012   18.1998 C   0  0  0  0  0  0  0  0  0  0  0  0
   38.3423   37.1505   14.7742 F   0  0  0  0  0  0  0  0  0  0  0  0
   38.2865   35.9641   19.4063 F   0  0  0  0  0  0  0  0  0  0  0  0
   35.6958   34.9289   19.1092 O   0  0  0  0  0  0  0  0  0  0  0  0
   34.1461   33.7090   20.9621 O   0  0  0  0  0  0  0  0  0  0  0  0
   33.9060   35.5872   22.2067 N   0  0  0  0  0  0  0  0  0  0  0  0
   33.1842   34.8573   23.2623 C   0  0  0  0  0  0  0  0  0  0  0  0
   33.6031   37.6404   23.4789 N   0  0  0  0  0  0  0  0  0  0  0  0
   33.3560   39.5693   24.7304 N   0  0  0  0  0  0  0  0  0  0  0  0
   35.4068   39.7035   20.8349 H   0  0  0  0  0  0  0  0  0  0  0  0
   35.8284   37.5549   19.4809 H   0  0  0  0  0  0  0  0  0  0  0  0
   32.8520   37.9119   25.8935 H   0  0  0  0  0  0  0  0  0  0  0  0
   34.0914   39.5179   27.3193 H   0  0  0  0  0  0  0  0  0  0  0  0
   32.7430   40.6931   27.1549 H   0  0  0  0  0  0  0  0  0  0  0  0
   32.4719   39.1260   27.9898 H   0  0  0  0  0  0  0  0  0  0  0  0
   30.8570   38.6353   24.6122 H   0  0  0  0  0  0  0  0  0  0  0  0
   30.5509   38.6016   26.3818 H   0  0  0  0  0  0  0  0  0  0  0  0
   30.8220   40.1688   25.5468 H   0  0  0  0  0  0  0  0  0  0  0  0
   34.7421   35.1415   16.6769 H   0  0  0  0  0  0  0  0  0  0  0  0
   35.9177   36.1287   14.7234 H   0  0  0  0  0  0  0  0  0  0  0  0
   39.3704   36.8766   17.1874 H   0  0  0  0  0  0  0  0  0  0  0  0
   33.1304   33.7904   23.0000 H   0  0  0  0  0  0  0  0  0  0  0  0
   33.7165   34.9734   24.2179 H   0  0  0  0  0  0  0  0  0  0  0  0
   32.1662   35.2630   23.3580 H   0  0  0  0  0  0  0  0  0  0  0  0
   34.1722   39.9584   25.1575 H   0  0  0  0  0  0  0  0  0  0  0  0
  1  3  2  0  0  0  0
  1  4  1  0  0  0  0
  2  4  2  0  0  0  0
  2 22  1  0  0  0  0
  2 24  1  0  0  0  0
  3  8  1  0  0  0  0
  4  5  1  0  0  0  0
  5  6  2  0  0  0  0
  6  7  1  0  0  0  0
  6 20  1  0  0  0  0
  7 21  2  0  0  0  0
  7 22  1  0  0  0  0
  8 24  2  0  0  0  0
  8 25  1  0  0  0  0
  9 10  1  0  0  0  0
  9 11  1  0  0  0  0
  9 25  1  0  0  0  0
 12 13  2  0  0  0  0
 12 17  1  0  0  0  0
 12 20  1  0  0  0  0
 13 14  1  0  0  0  0
 14 15  2  0  0  0  0
 15 16  1  0  0  0  0
 15 18  1  0  0  0  0
 16 17  2  0  0  0  0
 17 19  1  0  0  0  0
 22 23  1  0  0  0  0
  1 26  1  0  0  0  0
  5 27  1  0  0  0  0
  9 28  1  0  0  0  0
 10 29  1  0  0  0  0
 10 30  1  0  0  0  0
 10 31  1  0  0  0  0
 11 32  1  0  0  0  0
 11 33  1  0  0  0  0
 11 34  1  0  0  0  0
 13 35  1  0  0  0  0
 14 36  1  0  0  0  0
 16 37  1  0  0  0  0
 23 38  1  0  0  0  0
 23 39  1  0  0  0  0
 23 40  1  0  0  0  0
 25 41  1  0  0  0  0
M  END
> <i_m_stars>
2

> <r_user_dG.exp>
-11.423

$$$$
p38a_3fly
  -OEChem-05162309453D
 Structure written by MMmdl.
 41 43  0     0  0  0  0  0  0999 V2000
   34.9076   39.1154   21.5907 C   0  0  0  0  0  0  0  0  0  0  0  0
   34.0709   36.9986   22.3846 C   0  0  0  0  0  0  0  0  0  0  0  0
   34.4455   39.7277   22.7024 N   0  0  0  0  0  0  0  0  0  0  0  0
   34.7548   37.7275   21.3918 C   0  0  0  0  0  0  0  0  0  0  0  0
   35.2950   37.0103   20.2460 C   0  0  0  0  0  0  0  0  0  0  0  0
   35.1390   35.6721   20.1250 C   0  0  0  0  0  0  0  0  0  0  0  0
   34.3682   34.9095   21.1164 C   0  0  0  0  0  0  0  0  0  0  0  0
   33.8227   38.9512   23.5893 C   0  0  0  0  0  0  0  0  0  0  0  0
   32.6093   38.9831   25.8341 C   0  0  0  0  0  0  0  0  0  0  0  0
   33.0071   39.6254   27.1688 C   0  0  0  0  0  0  0  0  0  0  0  0
   31.1036   39.1058   25.5754 C   0  0  0  0  0  0  0  0  0  0  0  0
   36.3552   35.5188   18.0595 C   0  0  0  0  0  0  0  0  0  0  0  0
   35.7370   35.5446   16.7957 C   0  0  0  0  0  0  0  0  0  0  0  0
   36.4063   36.0920   15.6859 C   0  0  0  0  0  0  0  0  0  0  0  0
   37.7125   36.5912   15.8323 C   0  0  0  0  0  0  0  0  0  0  0  0
   38.3545   36.5250   17.0835 C   0  0  0  0  0  0  0  0  0  0  0  0
   37.6744   36.0012   18.1998 C   0  0  0  0  0  0  0  0  0  0  0  0
   38.3423   37.1505   14.7742 F   0  0  0  0  0  0  0  0  0  0  0  0
   38.2865   35.9641   19.4063 F   0  0  0  0  0  0  0  0  0  0  0  0
   35.6958   34.9289   19.1092 O   0  0  0  0  0  0  0  0  0  0  0  0
   34.1461   33.7090   20.9621 O   0  0  0  0  0  0  0  0  0  0  0  0
   33.9060   35.5872   22.2067 N   0  0  0  0  0  0  0  0  0  0  0  0
   33.1842   34.8573   23.2623 C   0  0  0  0  0  0  0  0  0  0  0  0
   33.6031   37.6404   23.4789 N   0  0  0  0  0  0  0  0  0  0  0  0
   33.3560   39.5693   24.7304 N   0  0  0  0  0  0  0  0  0  0  0  0
   35.4068   39.7035   20.8349 H   0  0  0  0  0  0  0  0  0  0  0  0
   35.8284   37.5549   19.4809 H   0  0  0  0  0  0  0  0  0  0  0  0
   32.8520   37.9119   25.8935 H   0  0  0  0  0  0  0  0  0  0  0  0
   34.0914   39.5179   27.3193 H   0  0  0  0  0  0  0  0  0  0  0  0
   32.7430   40.6931   27.1549 H   0  0  0  0  0  0  0  0  0  0  0  0
   32.4719   39.1260   27.9898 H   0  0  0  0  0  0  0  0  0  0  0  0
   30.8570   38.6353   24.6122 H   0  0  0  0  0  0  0  0  0  0  0  0
   30.5509   38.6016   26.3818 H   0  0  0  0  0  0  0  0  0  0  0  0
   30.8220   40.1688   25.5468 H   0  0  0  0  0  0  0  0  0  0  0  0
   34.7421   35.1415   16.6769 H   0  0  0  0  0  0  0  0  0  0  0  0
   35.9177   36.1287   14.7234 H   0  0  0  0  0  0  0  0  0  0  0  0
   39.3704   36.8766   17.1874 H   0  0  0  0  0  0  0  0  0  0  0  0
   33.1304   33.7904   23.0000 H   0  0  0  0  0  0  0  0  0  0  0  0
   33.7165   34.9734   24.2179 H   0  0  0  0  0  0  0  0  0  0  0  0
   32.1662   35.2630   23.3580 H   0  0  0  0  0  0  0  0  0  0  0  0
   33.1040   37.1437   24.1890 H   0  0  0  0  0  0  0  0  0  0  0  0
  1  3  2  0  0  0  0
  1  4  1  0  0  0  0
  2  4  2  0  0  0  0
  2 22  1  0  0  0  0
  2 24  1  0  0  0  0
  3  8  1  0  0  0  0
  4  5  1  0  0  0  0
  5  6  2  0  0  0  0
  6  7  1  0  0  0  0
  6 20  1  0  0  0  0
  7 21  2  0  0  0  0
  7 22  1  0  0  0  0
  8 24  1  0  0  0  0
  8 25  2  0  0  0  0
  9 10  1  0  0  0  0
  9 11  1  0  0  0  0
  9 25  1  0  0  0  0
 12 13  2  0  0  0  0
 12 17  1  0  0  0  0
 12 20  1  0  0  0  0
 13 14  1  0  0  0  0
 14 15  2  0  0  0  0
 15 16  1  0  0  0  0
 15 18  1  0  0  0  0
 16 17  2  0  0  0  0
 17 19  1  0  0  0  0
 22 23  1  0  0  0  0
  1 26  1  0  0  0  0
  5 27  1  0  0  0  0
  9 28  1  0  0  0  0
 10 29  1  0  0  0  0
 10 30  1  0  0  0  0
 10 31  1  0  0  0  0
 11 32  1  0  0  0  0
 11 33  1  0  0  0  0
 11 34  1  0  0  0  0
 13 35  1  0  0  0  0
 14 36  1  0  0  0  0
 16 37  1  0  0  0  0
 23 38  1  0  0  0  0
 23 39  1  0  0  0  0
 23 40  1  0  0  0  0
 24 41  1  0  0  0  0
M  END
> <i_m_stars>
2

> <r_user_dG.exp>
-11.423

$$$$
p38a_3fly
  -OEChem-05162309453D
 Structure written by MMmdl.
 41 43  0     0  0  0  0  0  0999 V2000
   34.9076   39.1154   21.5907 C   0  0  0  0  0  0  0  0  0  0  0  0
   34.0709   36.9986   22.3846 C   0  0  0  0  0  0  0  0  0  0  0  0
   34.4455   39.7277   22.7024 N   0  0  0  0  0  0  0  0  0  0  0  0
   34.7548   37.7275   21.3918 C   0  0  0  0  0  0  0  0  0  0  0  0
   35.2950   37.0103   20.2460 C   0  0  0  0  0  0  0  0  0  0  0  0
   35.1390   35.6721   20.1250 C   0  0  0  0  0  0  0  0  0  0  0  0
   34.3682   34.9095   21.1164 C   0  0  0  0  0  0  0  0  0  0  0  0
   33.8227   38.9512   23.5893 C   0  0  0  0  0  0  0  0  0  0  0  0
   32.6093   38.9831   25.8341 C   0  0  0  0  0  0  0  0  0  0  0  0
   33.0071   39.6254   27.1688 C   0  0  0  0  0  0  0  0  0  0  0  0
   31.1036   39.1058   25.5754 C   0  0  0  0  0  0  0  0  0  0  0  0
   36.3552   35.5188   18.0595 C   0  0  0  0  0  0  0  0  0  0  0  0
   35.7370   35.5446   16.7957 C   0  0  0  0  0  0  0  0  0  0  0  0
   36.4063   36.0920   15.6859 C   0  0  0  0  0  0  0  0  0  0  0  0
   37.7125   36.5912   15.8323 C   0  0  0  0  0  0  0  0  0  0  0  0
   38.3545   36.5250   17.0835 C   0  0  0  0  0  0  0  0  0  0  0  0
   37.6744   36.0012   18.1998 C   0  0  0  0  0  0  0  0  0  0  0  0
   38.3423   37.1505   14.7742 F   0  0  0  0  0  0  0  0  0  0  0  0
   38.2865   35.9641   19.4063 F   0  0  0  0  0  0  0  0  0  0  0  0
   35.6958   34.9289   19.1092 O   0  0  0  0  0  0  0  0  0  0  0  0
   34.1461   33.7090   20.9621 O   0  0  0  0  0  0  0  0  0  0  0  0
   33.9060   35.5872   22.2067 N   0  0  0  0  0  0  0  0  0  0  0  0
   33.1842   34.8573   23.2623 C   0  0  0  0  0  0  0  0  0  0  0  0
   33.6031   37.6404   23.4789 N   0  0  0  0  0  0  0  0  0  0  0  0
   33.3560   39.5693   24.7304 N   0  0  0  0  0  0  0  0  0  0  0  0
   35.4068   39.7035   20.8349 H   0  0  0  0  0  0  0  0  0  0  0  0
   34.5640   40.7093   22.8520 H   0  0  0  0  0  0  0  0  0  0  0  0
   35.8284   37.5549   19.4809 H   0  0  0  0  0  0  0  0  0  0  0  0
   32.8520   37.9119   25.8935 H   0  0  0  0  0  0  0  0  0  0  0  0
   34.0914   39.5179   27.3193 H   0  0  0  0  0  0  0  0  0  0  0  0
   32.7430   40.6931   27.1549 H   0  0  0  0  0  0  0  0  0  0  0  0
   32.4719   39.1260   27.9898 H   0  0  0  0  0  0  0  0  0  0  0  0
   30.8570   38.6353   24.6122 H   0  0  0  0  0  0  0  0  0  0  0  0
   30.5509   38.6016   26.3818 H   0  0  0  0  0  0  0  0  0  0  0  0
   30.8220   40.1688   25.5468 H   0  0  0  0  0  0  0  0  0  0  0  0
   34.7421   35.1415   16.6769 H   0  0  0  0  0  0  0  0  0  0  0  0
   35.9177   36.1287   14.7234 H   0  0  0  0  0  0  0  0  0  0  0  0
   39.3704   36.8766   17.1874 H   0  0  0  0  0  0  0  0  0  0  0  0
   33.1304   33.7904   23.0000 H   0  0  0  0  0  0  0  0  0  0  0  0
   33.7165   34.9734   24.2179 H   0  0  0  0  0  0  0  0  0  0  0  0
   32.1662   35.2630   23.3580 H   0  0  0  0  0  0  0  0  0  0  0  0
  1  3  1  0  0  0  0
  1  4  2  0  0  0  0
  2  4  1  0  0  0  0
  2 22  1  0  0  0  0
  2 24  2  0  0  0  0
  3  8  1  0  0  0  0
  4  5  1  0  0  0  0
  5  6  2  0  0  0  0
  6  7  1  0  0  0  0
  6 20  1  0  0  0  0
  7 21  2  0  0  0  0
  7 22  1  0  0  0  0
  8 24  1  0  0  0  0
  8 25  2  0  0  0  0
  9 10  1  0  0  0  0
  9 11  1  0  0  0  0
  9 25  1  0  0  0  0
 12 13  2  0  0  0  0
 12 17  1  0  0  0  0
 12 20  1  0  0  0  0
 13 14  1  0  0  0  0
 14 15  2  0  0  0  0
 15 16  1  0  0  0  0
 15 18  1  0  0  0  0
 16 17  2  0  0  0  0
 17 19  1  0  0  0  0
 22 23  1  0  0  0  0
  1 26  1  0  0  0  0
  3 27  1  0  0  0  0
  5 28  1  0  0  0  0
  9 29  1  0  0  0  0
 10 30  1  0  0  0  0
 10 31  1  0  0  0  0
 10 32  1  0  0  0  0
 11 33  1  0  0  0  0
 11 34  1  0  0  0  0
 11 35  1  0  0  0  0
 13 36  1  0  0  0  0
 14 37  1  0  0  0  0
 16 38  1  0  0  0  0
 23 39  1  0  0  0  0
 23 40  1  0  0  0  0
 23 41  1  0  0  0  0
M  END
> <i_m_stars>
2

> <r_user_dG.exp>
-11.423

$$$$
p38a_3fly
  -OEChem-05162309453D
 Structure written by MMmdl.
 41 43  0     0  0  0  0  0  0999 V2000
   34.9076   39.1154   21.5907 C   0  0  0  0  0  0  0  0  0  0  0  0
   34.0709   36.9986   22.3846 C   0  0  0  0  0  0  0  0  0  0  0  0
   34.4455   39.7277   22.7024 N   0  0  0  0  0  0  0  0  0  0  0  0
   34.7548   37.7275   21.3918 C   0  0  0  0  0  0  0  0  0  0  0  0
   35.2950   37.0103   20.2460 C   0  0  0  0  0  0  0  0  0  0  0  0
   35.1390   35.6721   20.1250 C   0  0  0  0  0  0  0  0  0  0  0  0
   34.3682   34.9095   21.1164 C   0  0  0  0  0  0  0  0  0  0  0  0
   33.8227   38.9512   23.5893 C   0  0  0  0  0  0  0  0  0  0  0  0
   32.6093   38.9831   25.8341 C   0  0  0  0  0  0  0  0  0  0  0  0
   33.0071   39.6254   27.1688 C   0  0  0  0  0  0  0  0  0  0  0  0
   31.1036   39.1058   25.5754 C   0  0  0  0  0  0  0  0  0  0  0  0
   36.3552   35.5188   18.0595 C   0  0  0  0  0  0  0  0  0  0  0  0
   35.7370   35.5446   16.7957 C   0  0  0  0  0  0  0  0  0  0  0  0
   36.4063   36.0920   15.6859 C   0  0  0  0  0  0  0  0  0  0  0  0
   37.7125   36.5912   15.8323 C   0  0  0  0  0  0  0  0  0  0  0  0
   38.3545   36.5250   17.0835 C   0  0  0  0  0  0  0  0  0  0  0  0
   37.6744   36.0012   18.1998 C   0  0  0  0  0  0  0  0  0  0  0  0
   38.3423   37.1505   14.7742 F   0  0  0  0  0  0  0  0  0  0  0  0
   38.2865   35.9641   19.4063 F   0  0  0  0  0  0  0  0  0  0  0  0
   35.6958   34.9289   19.1092 O   0  0  0  0  0  0  0  0  0  0  0  0
   34.1461   33.7090   20.9621 O   0  0  0  0  0  0  0  0  0  0  0  0
   33.9060   35.5872   22.2067 N   0  0  0  0  0  0  0  0  0  0  0  0
   33.1842   34.8573   23.2623 C   0  0  0  0  0  0  0  0  0  0  0  0
   33.6031   37.6404   23.4789 N   0  0  0  0  0  0  0  0  0  0  0  0
   33.3560   39.5693   24.7304 N   0  0  0  0  0  0  0  0  0  0  0  0
   35.4068   39.7035   20.8349 H   0  0  0  0  0  0  0  0  0  0  0  0
   35.8284   37.5549   19.4809 H   0  0  0  0  0  0  0  0  0  0  0  0
   32.8520   37.9119   25.8935 H   0  0  0  0  0  0  0  0  0  0  0  0
   34.0914   39.5179   27.3193 H   0  0  0  0  0  0  0  0  0  0  0  0
   32.7430   40.6931   27.1549 H   0  0  0  0  0  0  0  0  0  0  0  0
   32.4719   39.1260   27.9898 H   0  0  0  0  0  0  0  0  0  0  0  0
   30.8570   38.6353   24.6122 H   0  0  0  0  0  0  0  0  0  0  0  0
   30.5509   38.6016   26.3818 H   0  0  0  0  0  0  0  0  0  0  0  0
   30.8220   40.1688   25.5468 H   0  0  0  0  0  0  0  0  0  0  0  0
   34.7421   35.1415   16.6769 H   0  0  0  0  0  0  0  0  0  0  0  0
   35.9177   36.1287   14.7234 H   0  0  0  0  0  0  0  0  0  0  0  0
   39.3704   36.8766   17.1874 H   0  0  0  0  0  0  0  0  0  0  0  0
   33.6377   33.3837   21.6957 H   0  0  0  0  0  0  0  0  0  0  0  0
   33.1304   33.7904   23.0000 H   0  0  0  0  0  0  0  0  0  0  0  0
   33.7165   34.9734   24.2179 H   0  0  0  0  0  0  0  0  0  0  0  0
   32.1662   35.2630   23.3580 H   0  0  0  0  0  0  0  0  0  0  0  0
  1  3  2  0  0  0  0
  1  4  1  0  0  0  0
  2  4  1  0  0  0  0
  2 22  1  0  0  0  0
  2 24  2  0  0  0  0
  3  8  1  0  0  0  0
  4  5  2  0  0  0  0
  5  6  1  0  0  0  0
  6  7  2  0  0  0  0
  6 20  1  0  0  0  0
  7 21  1  0  0  0  0
  7 22  1  0  0  0  0
  8 24  1  0  0  0  0
  8 25  2  0  0  0  0
  9 10  1  0  0  0  0
  9 11  1  0  0  0  0
  9 25  1  0  0  0  0
 12 13  2  0  0  0  0
 12 17  1  0  0  0  0
 12 20  1  0  0  0  0
 13 14  1  0  0  0  0
 14 15  2  0  0  0  0
 15 16  1  0  0  0  0
 15 18  1  0  0  0  0
 16 17  2  0  0  0  0
 17 19  1  0  0  0  0
 22 23  1  0  0  0  0
  1 26  1  0  0  0  0
  5 27  1  0  0  0  0
  9 28  1  0  0  0  0
 10 29  1  0  0  0  0
 10 30  1  0  0  0  0
 10 31  1  0  0  0  0
 11 32  1  0  0  0  0
 11 33  1  0  0  0  0
 11 34  1  0  0  0  0
 13 35  1  0  0  0  0
 14 36  1  0  0  0  0
 16 37  1  0  0  0  0
 21 38  1  0  0  0  0
 23 39  1  0  0  0  0
 23 40  1  0  0  0  0
 23 41  1  0  0  0  0
M  END
> <i_m_stars>
2

> <r_user_dG.exp>
-11.423

$$$$
p38a_3fly
  -OEChem-05162309453D
 Structure written by MMmdl.
 41 43  0     1  0  0  0  0  0999 V2000
   34.9076   39.1154   21.5907 C   0  0  0  0  0  0  0  0  0  0  0  0
   34.0709   36.9986   22.3846 C   0  0  0  0  0  0  0  0  0  0  0  0
   34.4455   39.7277   22.7024 N   0  0  0  0  0  0  0  0  0  0  0  0
   34.7548   37.7275   21.3918 C   0  0  3  0  0  0  0  0  0  0  0  0
   35.2950   37.0103   20.2460 C   0  0  0  0  0  0  0  0  0  0  0  0
   35.1390   35.6721   20.1250 C   0  0  0  0  0  0  0  0  0  0  0  0
   34.3682   34.9095   21.1164 C   0  0  0  0  0  0  0  0  0  0  0  0
   33.8227   38.9512   23.5893 C   0  0  0  0  0  0  0  0  0  0  0  0
   32.6093   38.9831   25.8341 C   0  0  0  0  0  0  0  0  0  0  0  0
   33.0071   39.6254   27.1688 C   0  0  0  0  0  0  0  0  0  0  0  0
   31.1036   39.1058   25.5754 C   0  0  0  0  0  0  0  0  0  0  0  0
   36.3552   35.5188   18.0595 C   0  0  0  0  0  0  0  0  0  0  0  0
   35.7370   35.5446   16.7957 C   0  0  0  0  0  0  0  0  0  0  0  0
   36.4063   36.0920   15.6859 C   0  0  0  0  0  0  0  0  0  0  0  0
   37.7125   36.5912   15.8323 C   0  0  0  0  0  0  0  0  0  0  0  0
   38.3545   36.5250   17.0835 C   0  0  0  0  0  0  0  0  0  0  0  0
   37.6744   36.0012   18.1998 C   0  0  0  0  0  0  0  0  0  0  0  0
   38.3423   37.1505   14.7742 F   0  0  0  0  0  0  0  0  0  0  0  0
   38.2865   35.9641   19.4063 F   0  0  0  0  0  0  0  0  0  0  0  0
   35.6958   34.9289   19.1092 O   0  0  0  0  0  0  0  0  0  0  0  0
   34.1461   33.7090   20.9621 O   0  0  0  0  0  0  0  0  0  0  0  0
   33.9060   35.5872   22.2067 N   0  0  0  0  0  0  0  0  0  0  0  0
   33.1842   34.8573   23.2623 C   0  0  0  0  0  0  0  0  0  0  0  0
   33.6031   37.6404   23.4789 N   0  0  0  0  0  0  0  0  0  0  0  0
   33.3560   39.5693   24.7304 N   0  0  0  0  0  0  0  0  0  0  0  0
   35.4068   39.7035   20.8349 H   0  0  0  0  0  0  0  0  0  0  0  0
   33.8113   37.8982   20.8527 H   0  0  0  0  0  0  0  0  0  0  0  0
   35.8284   37.5549   19.4809 H   0  0  0  0  0  0  0  0  0  0  0  0
   32.8520   37.9119   25.8935 H   0  0  0  0  0  0  0  0  0  0  0  0
   34.0914   39.5179   27.3193 H   0  0  0  0  0  0  0  0  0  0  0  0
   32.7430   40.6931   27.1549 H   0  0  0  0  0  0  0  0  0  0  0  0
   32.4719   39.1260   27.9898 H   0  0  0  0  0  0  0  0  0  0  0  0
   30.8570   38.6353   24.6122 H   0  0  0  0  0  0  0  0  0  0  0  0
   30.5509   38.6016   26.3818 H   0  0  0  0  0  0  0  0  0  0  0  0
   30.8220   40.1688   25.5468 H   0  0  0  0  0  0  0  0  0  0  0  0
   34.7421   35.1415   16.6769 H   0  0  0  0  0  0  0  0  0  0  0  0
   35.9177   36.1287   14.7234 H   0  0  0  0  0  0  0  0  0  0  0  0
   39.3704   36.8766   17.1874 H   0  0  0  0  0  0  0  0  0  0  0  0
   33.1304   33.7904   23.0000 H   0  0  0  0  0  0  0  0  0  0  0  0
   33.7165   34.9734   24.2179 H   0  0  0  0  0  0  0  0  0  0  0  0
   32.1662   35.2630   23.3580 H   0  0  0  0  0  0  0  0  0  0  0  0
  1  3  2  0  0  0  0
  1  4  1  0  0  0  0
  2  4  1  0  0  0  0
  2 22  1  0  0  0  0
  2 24  2  0  0  0  0
  3  8  1  0  0  0  0
  4  5  1  0  0  0  0
  5  6  2  0  0  0  0
  6  7  1  0  0  0  0
  6 20  1  0  0  0  0
  7 21  2  0  0  0  0
  7 22  1  0  0  0  0
  8 24  1  0  0  0  0
  8 25  2  0  0  0  0
  9 10  1  0  0  0  0
  9 11  1  0  0  0  0
  9 25  1  0  0  0  0
 12 13  2  0  0  0  0
 12 17  1  0  0  0  0
 12 20  1  0  0  0  0
 13 14  1  0  0  0  0
 14 15  2  0  0  0  0
 15 16  1  0  0  0  0
 15 18  1  0  0  0  0
 16 17  2  0  0  0  0
 17 19  1  0  0  0  0
 22 23  1  0  0  0  0
  1 26  1  0  0  0  0
  4 27  1  0  0  0  0
  5 28  1  0  0  0  0
  9 29  1  0  0  0  0
 10 30  1  0  0  0  0
 10 31  1  0  0  0  0
 10 32  1  0  0  0  0
 11 33  1  0  0  0  0
 11 34  1  0  0  0  0
 11 35  1  0  0  0  0
 13 36  1  0  0  0  0
 14 37  1  0  0  0  0
 16 38  1  0  0  0  0
 23 39  1  0  0  0  0
 23 40  1  0  0  0  0
 23 41  1  0  0  0  0
M  END
> <i_m_stars>
2

> <r_user_dG.exp>
-11.423

$$$$
p38a_3fly
  -OEChem-05162309453D
 Structure written by MMmdl.
 41 43  0     1  0  0  0  0  0999 V2000
   34.9076   39.1154   21.5907 C   0  0  0  0  0  0  0  0  0  0  0  0
   34.0709   36.9986   22.3846 C   0  0  0  0  0  0  0  0  0  0  0  0
   34.4455   39.7277   22.7024 N   0  0  0  0  0  0  0  0  0  0  0  0
   34.7548   37.7275   21.3918 C   0  0  0  0  0  0  0  0  0  0  0  0
   35.2950   37.0103   20.2460 C   0  0  0  0  0  0  0  0  0  0  0  0
   35.1390   35.6721   20.1250 C   0  0  3  0  0  0  0  0  0  0  0  0
   34.3682   34.9095   21.1164 C   0  0  0  0  0  0  0  0  0  0  0  0
   33.8227   38.9512   23.5893 C   0  0  0  0  0  0  0  0  0  0  0  0
   32.6093   38.9831   25.8341 C   0  0  0  0  0  0  0  0  0  0  0  0
   33.0071   39.6254   27.1688 C   0  0  0  0  0  0  0  0  0  0  0  0
   31.1036   39.1058   25.5754 C   0  0  0  0  0  0  0  0  0  0  0  0
   36.3552   35.5188   18.0595 C   0  0  0  0  0  0  0  0  0  0  0  0
   35.7370   35.5446   16.7957 C   0  0  0  0  0  0  0  0  0  0  0  0
   36.4063   36.0920   15.6859 C   0  0  0  0  0  0  0  0  0  0  0  0
   37.7125   36.5912   15.8323 C   0  0  0  0  0  0  0  0  0  0  0  0
   38.3545   36.5250   17.0835 C   0  0  0  0  0  0  0  0  0  0  0  0
   37.6744   36.0012   18.1998 C   0  0  0  0  0  0  0  0  0  0  0  0
   38.3423   37.1505   14.7742 F   0  0  0  0  0  0  0  0  0  0  0  0
   38.2865   35.9641   19.4063 F   0  0  0  0  0  0  0  0  0  0  0  0
   35.6958   34.9289   19.1092 O   0  0  0  0  0  0  0  0  0  0  0  0
   34.1461   33.7090   20.9621 O   0  0  0  0  0  0  0  0  0  0  0  0
   33.9060   35.5872   22.2067 N   0  0  0  0  0  0  0  0  0  0  0  0
   33.1842   34.8573   23.2623 C   0  0  0  0  0  0  0  0  0  0  0  0
   33.6031   37.6404   23.4789 N   0  0  0  0  0  0  0  0  0  0  0  0
   33.3560   39.5693   24.7304 N   0  0  0  0  0  0  0  0  0  0  0  0
   35.4068   39.7035   20.8349 H   0  0  0  0  0  0  0  0  0  0  0  0
   35.8284   37.5549   19.4809 H   0  0  0  0  0  0  0  0  0  0  0  0
   34.2297   35.8247   19.5251 H   0  0  0  0  0  0  0  0  0  0  0  0
   32.8520   37.9119   25.8935 H   0  0  0  0  0  0  0  0  0  0  0  0
   34.0914   39.5179   27.3193 H   0  0  0  0  0  0  0  0  0  0  0  0
   32.7430   40.6931   27.1549 H   0  0  0  0  0  0  0  0  0  0  0  0
   32.4719   39.1260   27.9898 H   0  0  0  0  0  0  0  0  0  0  0  0
   30.8570   38.6353   24.6122 H   0  0  0  0  0  0  0  0  0  0  0  0
   30.5509   38.6016   26.3818 H   0  0  0  0  0  0  0  0  0  0  0  0
   30.8220   40.1688   25.5468 H   0  0  0  0  0  0  0  0  0  0  0  0
   34.7421   35.1415   16.6769 H   0  0  0  0  0  0  0  0  0  0  0  0
   35.9177   36.1287   14.7234 H   0  0  0  0  0  0  0  0  0  0  0  0
   39.3704   36.8766   17.1874 H   0  0  0  0  0  0  0  0  0  0  0  0
   33.1304   33.7904   23.0000 H   0  0  0  0  0  0  0  0  0  0  0  0
   33.7165   34.9734   24.2179 H   0  0  0  0  0  0  0  0  0  0  0  0
   32.1662   35.2630   23.3580 H   0  0  0  0  0  0  0  0  0  0  0  0
  1  3  2  0  0  0  0
  1  4  1  0  0  0  0
  2  4  1  0  0  0  0
  2 22  1  0  0  0  0
  2 24  2  0  0  0  0
  3  8  1  0  0  0  0
  4  5  2  0  0  0  0
  5  6  1  0  0  0  0
  6  7  1  0  0  0  0
  6 20  1  0  0  0  0
  7 21  2  0  0  0  0
  7 22  1  0  0  0  0
  8 24  1  0  0  0  0
  8 25  2  0  0  0  0
  9 10  1  0  0  0  0
  9 11  1  0  0  0  0
  9 25  1  0  0  0  0
 12 13  2  0  0  0  0
 12 17  1  0  0  0  0
 12 20  1  0  0  0  0
 13 14  1  0  0  0  0
 14 15  2  0  0  0  0
 15 16  1  0  0  0  0
 15 18  1  0  0  0  0
 16 17  2  0  0  0  0
 17 19  1  0  0  0  0
 22 23  1  0  0  0  0
  1 26  1  0  0  0  0
  5 27  1  0  0  0  0
  6 28  1  0  0  0  0
  9 29  1  0  0  0  0
 10 30  1  0  0  0  0
 10 31  1  0  0  0  0
 10 32  1  0  0  0  0
 11 33  1  0  0  0  0
 11 34  1  0  0  0  0
 11 35  1  0  0  0  0
 13 36  1  0  0  0  0
 14 37  1  0  0  0  0
 16 38  1  0  0  0  0
 23 39  1  0  0  0  0
 23 40  1  0  0  0  0
 23 41  1  0  0  0  0
M  END
> <i_m_stars>
2

> <r_user_dG.exp>
-11.423

$$$$
