p38a_3flw
  -OEChem-05162309453D
 Structure written by MMmdl.
 49 51  0     0  0  0  0  0  0999 V2000
   38.3390   36.6732   17.0574 C   0  0  0  0  0  0  0  0  0  0  0  0
   37.6670   36.6212   15.8212 C   0  0  0  0  0  0  0  0  0  0  0  0
   33.5281   39.4364   27.3316 C   0  0  0  0  0  0  0  0  0  0  0  0
   34.9049   38.7976   27.5610 C   0  0  0  0  0  0  0  0  0  0  0  0
   31.4189   39.4188   25.9024 C   0  0  0  0  0  0  0  0  0  0  0  0
   33.4672   34.8125   23.3952 C   0  0  0  0  0  0  0  0  0  0  0  0
   38.3758   36.2250   19.4044 F   0  0  0  0  0  0  0  0  0  0  0  0
   37.7408   36.1338   18.2118 C   0  0  0  0  0  0  0  0  0  0  0  0
   38.2121   37.1987   14.7266 F   0  0  0  0  0  0  0  0  0  0  0  0
   36.4167   35.9838   15.7308 C   0  0  0  0  0  0  0  0  0  0  0  0
   35.8281   35.4259   16.8797 C   0  0  0  0  0  0  0  0  0  0  0  0
   36.4736   35.5188   18.1281 C   0  0  0  0  0  0  0  0  0  0  0  0
   35.8847   34.9357   19.2218 O   0  0  0  0  0  0  0  0  0  0  0  0
   35.3223   35.6836   20.2329 C   0  0  0  0  0  0  0  0  0  0  0  0
   35.4160   37.0309   20.3178 C   0  0  0  0  0  0  0  0  0  0  0  0
   34.8964   37.7486   21.4749 C   0  0  0  0  0  0  0  0  0  0  0  0
   35.0144   39.1441   21.6469 C   0  0  0  0  0  0  0  0  0  0  0  0
   34.6050   39.7559   22.7793 N   0  0  0  0  0  0  0  0  0  0  0  0
   34.6208   34.9125   21.2655 C   0  0  0  0  0  0  0  0  0  0  0  0
   34.4686   33.6966   21.1598 O   0  0  0  0  0  0  0  0  0  0  0  0
   34.1449   35.5950   22.3469 N   0  0  0  0  0  0  0  0  0  0  0  0
   34.2884   37.0112   22.5117 C   0  0  0  0  0  0  0  0  0  0  0  0
   33.8757   37.6552   23.6268 N   0  0  0  0  0  0  0  0  0  0  0  0
   34.0662   38.9716   23.7113 C   0  0  0  0  0  0  0  0  0  0  0  0
   33.6452   39.5897   24.8695 N   0  0  0  0  0  0  0  0  0  0  0  0
   32.9030   39.0189   25.9874 C   0  0  0  0  0  0  0  0  0  0  0  0
   30.6868   38.8865   24.6577 C   0  0  0  0  0  0  0  0  0  0  0  0
   30.6837   37.4753   24.6295 O   0  0  0  0  0  0  0  0  0  0  0  0
   35.4267   39.1835   28.8127 O   0  0  0  0  0  0  0  0  0  0  0  0
   39.3164   37.1283   17.1201 H   0  0  0  0  0  0  0  0  0  0  0  0
   32.8554   39.1271   28.1451 H   0  0  0  0  0  0  0  0  0  0  0  0
   33.6400   40.5306   27.3443 H   0  0  0  0  0  0  0  0  0  0  0  0
   34.8050   37.7025   27.5327 H   0  0  0  0  0  0  0  0  0  0  0  0
   35.5921   39.1238   26.7664 H   0  0  0  0  0  0  0  0  0  0  0  0
   30.9065   39.0307   26.7950 H   0  0  0  0  0  0  0  0  0  0  0  0
   31.3586   40.5171   25.8934 H   0  0  0  0  0  0  0  0  0  0  0  0
   33.1375   35.4855   24.2004 H   0  0  0  0  0  0  0  0  0  0  0  0
   32.5938   34.3013   22.9641 H   0  0  0  0  0  0  0  0  0  0  0  0
   34.1642   34.0660   23.8037 H   0  0  0  0  0  0  0  0  0  0  0  0
   35.9088   35.9228   14.7796 H   0  0  0  0  0  0  0  0  0  0  0  0
   34.8752   34.9231   16.8043 H   0  0  0  0  0  0  0  0  0  0  0  0
   35.8831   37.5829   19.5156 H   0  0  0  0  0  0  0  0  0  0  0  0
   35.4429   39.7380   20.8531 H   0  0  0  0  0  0  0  0  0  0  0  0
   34.4835   39.9466   25.2817 H   0  0  0  0  0  0  0  0  0  0  0  0
   32.9567   37.9222   25.9217 H   0  0  0  0  0  0  0  0  0  0  0  0
   29.6476   39.2470   24.6716 H   0  0  0  0  0  0  0  0  0  0  0  0
   31.1931   39.2619   23.7562 H   0  0  0  0  0  0  0  0  0  0  0  0
   30.2266   37.1746   23.8529 H   0  0  0  0  0  0  0  0  0  0  0  0
   36.2776   38.7806   28.9394 H   0  0  0  0  0  0  0  0  0  0  0  0
  1  2  2  0  0  0  0
  1  8  1  0  0  0  0
  2  9  1  0  0  0  0
  2 10  1  0  0  0  0
  3  4  1  0  0  0  0
  3 26  1  0  0  0  0
  4 29  1  0  0  0  0
  5 26  1  0  0  0  0
  5 27  1  0  0  0  0
  6 21  1  0  0  0  0
  7  8  1  0  0  0  0
  8 12  2  0  0  0  0
 10 11  2  0  0  0  0
 11 12  1  0  0  0  0
 12 13  1  0  0  0  0
 13 14  1  0  0  0  0
 14 15  2  0  0  0  0
 14 19  1  0  0  0  0
 15 16  1  0  0  0  0
 16 17  2  0  0  0  0
 16 22  1  0  0  0  0
 17 18  1  0  0  0  0
 18 24  2  0  0  0  0
 19 20  2  0  0  0  0
 19 21  1  0  0  0  0
 21 22  1  0  0  0  0
 22 23  2  0  0  0  0
 23 24  1  0  0  0  0
 24 25  1  0  0  0  0
 25 26  1  0  0  0  0
 27 28  1  0  0  0  0
  1 30  1  0  0  0  0
  3 31  1  0  0  0  0
  3 32  1  0  0  0  0
  4 33  1  0  0  0  0
  4 34  1  0  0  0  0
  5 35  1  0  0  0  0
  5 36  1  0  0  0  0
  6 37  1  0  0  0  0
  6 38  1  0  0  0  0
  6 39  1  0  0  0  0
 10 40  1  0  0  0  0
 11 41  1  0  0  0  0
 15 42  1  0  0  0  0
 17 43  1  0  0  0  0
 25 44  1  0  0  0  0
 26 45  1  0  0  0  0
 27 46  1  0  0  0  0
 27 47  1  0  0  0  0
 28 48  1  0  0  0  0
 29 49  1  0  0  0  0
M  END
> <r_user_dG.exp>
-10.683

$$$$
p38a_3flw
  -OEChem-05162309453D
 Structure written by MMmdl.
 49 51  0     0  0  0  0  0  0999 V2000
   38.3390   36.6732   17.0574 C   0  0  0  0  0  0  0  0  0  0  0  0
   37.6670   36.6212   15.8212 C   0  0  0  0  0  0  0  0  0  0  0  0
   33.5281   39.4364   27.3316 C   0  0  0  0  0  0  0  0  0  0  0  0
   34.9049   38.7976   27.5610 C   0  0  0  0  0  0  0  0  0  0  0  0
   31.4189   39.4188   25.9024 C   0  0  0  0  0  0  0  0  0  0  0  0
   33.4672   34.8125   23.3952 C   0  0  0  0  0  0  0  0  0  0  0  0
   38.3758   36.2250   19.4044 F   0  0  0  0  0  0  0  0  0  0  0  0
   37.7408   36.1338   18.2118 C   0  0  0  0  0  0  0  0  0  0  0  0
   38.2121   37.1987   14.7266 F   0  0  0  0  0  0  0  0  0  0  0  0
   36.4167   35.9838   15.7308 C   0  0  0  0  0  0  0  0  0  0  0  0
   35.8281   35.4259   16.8797 C   0  0  0  0  0  0  0  0  0  0  0  0
   36.4736   35.5188   18.1281 C   0  0  0  0  0  0  0  0  0  0  0  0
   35.8847   34.9357   19.2218 O   0  0  0  0  0  0  0  0  0  0  0  0
   35.3223   35.6836   20.2329 C   0  0  0  0  0  0  0  0  0  0  0  0
   35.4160   37.0309   20.3178 C   0  0  0  0  0  0  0  0  0  0  0  0
   34.8964   37.7486   21.4749 C   0  0  0  0  0  0  0  0  0  0  0  0
   35.0144   39.1441   21.6469 C   0  0  0  0  0  0  0  0  0  0  0  0
   34.6050   39.7559   22.7793 N   0  0  0  0  0  0  0  0  0  0  0  0
   34.6208   34.9125   21.2655 C   0  0  0  0  0  0  0  0  0  0  0  0
   34.4686   33.6966   21.1598 O   0  0  0  0  0  0  0  0  0  0  0  0
   34.1449   35.5950   22.3469 N   0  0  0  0  0  0  0  0  0  0  0  0
   34.2884   37.0112   22.5117 C   0  0  0  0  0  0  0  0  0  0  0  0
   33.8757   37.6552   23.6268 N   0  0  0  0  0  0  0  0  0  0  0  0
   34.0662   38.9716   23.7113 C   0  0  0  0  0  0  0  0  0  0  0  0
   33.6452   39.5897   24.8695 N   0  0  0  0  0  0  0  0  0  0  0  0
   32.9030   39.0189   25.9874 C   0  0  0  0  0  0  0  0  0  0  0  0
   30.6868   38.8865   24.6577 C   0  0  0  0  0  0  0  0  0  0  0  0
   30.6837   37.4753   24.6295 O   0  0  0  0  0  0  0  0  0  0  0  0
   35.4267   39.1835   28.8127 O   0  0  0  0  0  0  0  0  0  0  0  0
   39.3164   37.1283   17.1201 H   0  0  0  0  0  0  0  0  0  0  0  0
   32.8554   39.1271   28.1451 H   0  0  0  0  0  0  0  0  0  0  0  0
   33.6400   40.5306   27.3443 H   0  0  0  0  0  0  0  0  0  0  0  0
   34.8050   37.7025   27.5327 H   0  0  0  0  0  0  0  0  0  0  0  0
   35.5921   39.1238   26.7664 H   0  0  0  0  0  0  0  0  0  0  0  0
   30.9065   39.0307   26.7950 H   0  0  0  0  0  0  0  0  0  0  0  0
   31.3586   40.5171   25.8934 H   0  0  0  0  0  0  0  0  0  0  0  0
   33.1375   35.4855   24.2004 H   0  0  0  0  0  0  0  0  0  0  0  0
   32.5938   34.3013   22.9641 H   0  0  0  0  0  0  0  0  0  0  0  0
   34.1642   34.0660   23.8037 H   0  0  0  0  0  0  0  0  0  0  0  0
   35.9088   35.9228   14.7796 H   0  0  0  0  0  0  0  0  0  0  0  0
   34.8752   34.9231   16.8043 H   0  0  0  0  0  0  0  0  0  0  0  0
   35.8831   37.5829   19.5156 H   0  0  0  0  0  0  0  0  0  0  0  0
   35.4429   39.7380   20.8531 H   0  0  0  0  0  0  0  0  0  0  0  0
   33.4367   37.1541   24.3726 H   0  0  0  0  0  0  0  0  0  0  0  0
   32.9567   37.9222   25.9217 H   0  0  0  0  0  0  0  0  0  0  0  0
   29.6476   39.2470   24.6716 H   0  0  0  0  0  0  0  0  0  0  0  0
   31.1931   39.2619   23.7562 H   0  0  0  0  0  0  0  0  0  0  0  0
   30.2266   37.1746   23.8529 H   0  0  0  0  0  0  0  0  0  0  0  0
   36.2776   38.7806   28.9394 H   0  0  0  0  0  0  0  0  0  0  0  0
  1  2  2  0  0  0  0
  1  8  1  0  0  0  0
  2  9  1  0  0  0  0
  2 10  1  0  0  0  0
  3  4  1  0  0  0  0
  3 26  1  0  0  0  0
  4 29  1  0  0  0  0
  5 26  1  0  0  0  0
  5 27  1  0  0  0  0
  6 21  1  0  0  0  0
  7  8  1  0  0  0  0
  8 12  2  0  0  0  0
 10 11  2  0  0  0  0
 11 12  1  0  0  0  0
 12 13  1  0  0  0  0
 13 14  1  0  0  0  0
 14 15  2  0  0  0  0
 14 19  1  0  0  0  0
 15 16  1  0  0  0  0
 16 17  1  0  0  0  0
 16 22  2  0  0  0  0
 17 18  2  0  0  0  0
 18 24  1  0  0  0  0
 19 20  2  0  0  0  0
 19 21  1  0  0  0  0
 21 22  1  0  0  0  0
 22 23  1  0  0  0  0
 23 24  1  0  0  0  0
 24 25  2  0  0  0  0
 25 26  1  0  0  0  0
 27 28  1  0  0  0  0
  1 30  1  0  0  0  0
  3 31  1  0  0  0  0
  3 32  1  0  0  0  0
  4 33  1  0  0  0  0
  4 34  1  0  0  0  0
  5 35  1  0  0  0  0
  5 36  1  0  0  0  0
  6 37  1  0  0  0  0
  6 38  1  0  0  0  0
  6 39  1  0  0  0  0
 10 40  1  0  0  0  0
 11 41  1  0  0  0  0
 15 42  1  0  0  0  0
 17 43  1  0  0  0  0
 23 44  1  0  0  0  0
 26 45  1  0  0  0  0
 27 46  1  0  0  0  0
 27 47  1  0  0  0  0
 28 48  1  0  0  0  0
 29 49  1  0  0  0  0
M  END
> <r_user_dG.exp>
-10.683

$$$$
p38a_3flw
  -OEChem-05162309453D
 Structure written by MMmdl.
 49 51  0     0  0  0  0  0  0999 V2000
   38.3390   36.6732   17.0574 C   0  0  0  0  0  0  0  0  0  0  0  0
   37.6670   36.6212   15.8212 C   0  0  0  0  0  0  0  0  0  0  0  0
   33.5281   39.4364   27.3316 C   0  0  0  0  0  0  0  0  0  0  0  0
   34.9049   38.7976   27.5610 C   0  0  0  0  0  0  0  0  0  0  0  0
   31.4189   39.4188   25.9024 C   0  0  0  0  0  0  0  0  0  0  0  0
   33.4672   34.8125   23.3952 C   0  0  0  0  0  0  0  0  0  0  0  0
   38.3758   36.2250   19.4044 F   0  0  0  0  0  0  0  0  0  0  0  0
   37.7408   36.1338   18.2118 C   0  0  0  0  0  0  0  0  0  0  0  0
   38.2121   37.1987   14.7266 F   0  0  0  0  0  0  0  0  0  0  0  0
   36.4167   35.9838   15.7308 C   0  0  0  0  0  0  0  0  0  0  0  0
   35.8281   35.4259   16.8797 C   0  0  0  0  0  0  0  0  0  0  0  0
   36.4736   35.5188   18.1281 C   0  0  0  0  0  0  0  0  0  0  0  0
   35.8847   34.9357   19.2218 O   0  0  0  0  0  0  0  0  0  0  0  0
   35.3223   35.6836   20.2329 C   0  0  0  0  0  0  0  0  0  0  0  0
   35.4160   37.0309   20.3178 C   0  0  0  0  0  0  0  0  0  0  0  0
   34.8964   37.7486   21.4749 C   0  0  0  0  0  0  0  0  0  0  0  0
   35.0144   39.1441   21.6469 C   0  0  0  0  0  0  0  0  0  0  0  0
   34.6050   39.7559   22.7793 N   0  0  0  0  0  0  0  0  0  0  0  0
   34.6208   34.9125   21.2655 C   0  0  0  0  0  0  0  0  0  0  0  0
   34.4686   33.6966   21.1598 O   0  0  0  0  0  0  0  0  0  0  0  0
   34.1449   35.5950   22.3469 N   0  0  0  0  0  0  0  0  0  0  0  0
   34.2884   37.0112   22.5117 C   0  0  0  0  0  0  0  0  0  0  0  0
   33.8757   37.6552   23.6268 N   0  0  0  0  0  0  0  0  0  0  0  0
   34.0662   38.9716   23.7113 C   0  0  0  0  0  0  0  0  0  0  0  0
   33.6452   39.5897   24.8695 N   0  0  0  0  0  0  0  0  0  0  0  0
   32.9030   39.0189   25.9874 C   0  0  0  0  0  0  0  0  0  0  0  0
   30.6868   38.8865   24.6577 C   0  0  0  0  0  0  0  0  0  0  0  0
   30.6837   37.4753   24.6295 O   0  0  0  0  0  0  0  0  0  0  0  0
   35.4267   39.1835   28.8127 O   0  0  0  0  0  0  0  0  0  0  0  0
   39.3164   37.1283   17.1201 H   0  0  0  0  0  0  0  0  0  0  0  0
   32.8554   39.1271   28.1451 H   0  0  0  0  0  0  0  0  0  0  0  0
   33.6400   40.5306   27.3443 H   0  0  0  0  0  0  0  0  0  0  0  0
   34.8050   37.7025   27.5327 H   0  0  0  0  0  0  0  0  0  0  0  0
   35.5921   39.1238   26.7664 H   0  0  0  0  0  0  0  0  0  0  0  0
   30.9065   39.0307   26.7950 H   0  0  0  0  0  0  0  0  0  0  0  0
   31.3586   40.5171   25.8934 H   0  0  0  0  0  0  0  0  0  0  0  0
   33.1375   35.4855   24.2004 H   0  0  0  0  0  0  0  0  0  0  0  0
   32.5938   34.3013   22.9641 H   0  0  0  0  0  0  0  0  0  0  0  0
   34.1642   34.0660   23.8037 H   0  0  0  0  0  0  0  0  0  0  0  0
   35.9088   35.9228   14.7796 H   0  0  0  0  0  0  0  0  0  0  0  0
   34.8752   34.9231   16.8043 H   0  0  0  0  0  0  0  0  0  0  0  0
   35.8831   37.5829   19.5156 H   0  0  0  0  0  0  0  0  0  0  0  0
   35.4429   39.7380   20.8531 H   0  0  0  0  0  0  0  0  0  0  0  0
   34.7010   40.7426   22.9106 H   0  0  0  0  0  0  0  0  0  0  0  0
   32.9567   37.9222   25.9217 H   0  0  0  0  0  0  0  0  0  0  0  0
   29.6476   39.2470   24.6716 H   0  0  0  0  0  0  0  0  0  0  0  0
   31.1931   39.2619   23.7562 H   0  0  0  0  0  0  0  0  0  0  0  0
   30.2266   37.1746   23.8529 H   0  0  0  0  0  0  0  0  0  0  0  0
   36.2776   38.7806   28.9394 H   0  0  0  0  0  0  0  0  0  0  0  0
  1  2  2  0  0  0  0
  1  8  1  0  0  0  0
  2  9  1  0  0  0  0
  2 10  1  0  0  0  0
  3  4  1  0  0  0  0
  3 26  1  0  0  0  0
  4 29  1  0  0  0  0
  5 26  1  0  0  0  0
  5 27  1  0  0  0  0
  6 21  1  0  0  0  0
  7  8  1  0  0  0  0
  8 12  2  0  0  0  0
 10 11  2  0  0  0  0
 11 12  1  0  0  0  0
 12 13  1  0  0  0  0
 13 14  1  0  0  0  0
 14 15  2  0  0  0  0
 14 19  1  0  0  0  0
 15 16  1  0  0  0  0
 16 17  2  0  0  0  0
 16 22  1  0  0  0  0
 17 18  1  0  0  0  0
 18 24  1  0  0  0  0
 19 20  2  0  0  0  0
 19 21  1  0  0  0  0
 21 22  1  0  0  0  0
 22 23  2  0  0  0  0
 23 24  1  0  0  0  0
 24 25  2  0  0  0  0
 25 26  1  0  0  0  0
 27 28  1  0  0  0  0
  1 30  1  0  0  0  0
  3 31  1  0  0  0  0
  3 32  1  0  0  0  0
  4 33  1  0  0  0  0
  4 34  1  0  0  0  0
  5 35  1  0  0  0  0
  5 36  1  0  0  0  0
  6 37  1  0  0  0  0
  6 38  1  0  0  0  0
  6 39  1  0  0  0  0
 10 40  1  0  0  0  0
 11 41  1  0  0  0  0
 15 42  1  0  0  0  0
 17 43  1  0  0  0  0
 18 44  1  0  0  0  0
 26 45  1  0  0  0  0
 27 46  1  0  0  0  0
 27 47  1  0  0  0  0
 28 48  1  0  0  0  0
 29 49  1  0  0  0  0
M  END
> <r_user_dG.exp>
-10.683

$$$$
p38a_3flw
  -OEChem-05162309453D
 Structure written by MMmdl.
 49 51  0     0  0  0  0  0  0999 V2000
   38.3390   36.6732   17.0574 C   0  0  0  0  0  0  0  0  0  0  0  0
   37.6670   36.6212   15.8212 C   0  0  0  0  0  0  0  0  0  0  0  0
   33.5281   39.4364   27.3316 C   0  0  0  0  0  0  0  0  0  0  0  0
   34.9049   38.7976   27.5610 C   0  0  0  0  0  0  0  0  0  0  0  0
   31.4189   39.4188   25.9024 C   0  0  0  0  0  0  0  0  0  0  0  0
   33.4672   34.8125   23.3952 C   0  0  0  0  0  0  0  0  0  0  0  0
   38.3758   36.2250   19.4044 F   0  0  0  0  0  0  0  0  0  0  0  0
   37.7408   36.1338   18.2118 C   0  0  0  0  0  0  0  0  0  0  0  0
   38.2121   37.1987   14.7266 F   0  0  0  0  0  0  0  0  0  0  0  0
   36.4167   35.9838   15.7308 C   0  0  0  0  0  0  0  0  0  0  0  0
   35.8281   35.4259   16.8797 C   0  0  0  0  0  0  0  0  0  0  0  0
   36.4736   35.5188   18.1281 C   0  0  0  0  0  0  0  0  0  0  0  0
   35.8847   34.9357   19.2218 O   0  0  0  0  0  0  0  0  0  0  0  0
   35.3223   35.6836   20.2329 C   0  0  0  0  0  0  0  0  0  0  0  0
   35.4160   37.0309   20.3178 C   0  0  0  0  0  0  0  0  0  0  0  0
   34.8964   37.7486   21.4749 C   0  0  0  0  0  0  0  0  0  0  0  0
   35.0144   39.1441   21.6469 C   0  0  0  0  0  0  0  0  0  0  0  0
   34.6050   39.7559   22.7793 N   0  0  0  0  0  0  0  0  0  0  0  0
   34.6208   34.9125   21.2655 C   0  0  0  0  0  0  0  0  0  0  0  0
   34.4686   33.6966   21.1598 O   0  0  0  0  0  0  0  0  0  0  0  0
   34.1449   35.5950   22.3469 N   0  0  0  0  0  0  0  0  0  0  0  0
   34.2884   37.0112   22.5117 C   0  0  0  0  0  0  0  0  0  0  0  0
   33.8757   37.6552   23.6268 N   0  0  0  0  0  0  0  0  0  0  0  0
   34.0662   38.9716   23.7113 C   0  0  0  0  0  0  0  0  0  0  0  0
   33.6452   39.5897   24.8695 N   0  0  0  0  0  0  0  0  0  0  0  0
   32.9030   39.0189   25.9874 C   0  0  0  0  0  0  0  0  0  0  0  0
   30.6868   38.8865   24.6577 C   0  0  0  0  0  0  0  0  0  0  0  0
   30.6837   37.4753   24.6295 O   0  0  0  0  0  0  0  0  0  0  0  0
   35.4267   39.1835   28.8127 O   0  0  0  0  0  0  0  0  0  0  0  0
   39.3164   37.1283   17.1201 H   0  0  0  0  0  0  0  0  0  0  0  0
   32.8554   39.1271   28.1451 H   0  0  0  0  0  0  0  0  0  0  0  0
   33.6400   40.5306   27.3443 H   0  0  0  0  0  0  0  0  0  0  0  0
   34.8050   37.7025   27.5327 H   0  0  0  0  0  0  0  0  0  0  0  0
   35.5921   39.1238   26.7664 H   0  0  0  0  0  0  0  0  0  0  0  0
   30.9065   39.0307   26.7950 H   0  0  0  0  0  0  0  0  0  0  0  0
   31.3586   40.5171   25.8934 H   0  0  0  0  0  0  0  0  0  0  0  0
   33.1375   35.4855   24.2004 H   0  0  0  0  0  0  0  0  0  0  0  0
   32.5938   34.3013   22.9641 H   0  0  0  0  0  0  0  0  0  0  0  0
   34.1642   34.0660   23.8037 H   0  0  0  0  0  0  0  0  0  0  0  0
   35.9088   35.9228   14.7796 H   0  0  0  0  0  0  0  0  0  0  0  0
   34.8752   34.9231   16.8043 H   0  0  0  0  0  0  0  0  0  0  0  0
   35.8831   37.5829   19.5156 H   0  0  0  0  0  0  0  0  0  0  0  0
   35.4429   39.7380   20.8531 H   0  0  0  0  0  0  0  0  0  0  0  0
   33.9959   33.3693   21.9160 H   0  0  0  0  0  0  0  0  0  0  0  0
   32.9567   37.9222   25.9217 H   0  0  0  0  0  0  0  0  0  0  0  0
   29.6476   39.2470   24.6716 H   0  0  0  0  0  0  0  0  0  0  0  0
   31.1931   39.2619   23.7562 H   0  0  0  0  0  0  0  0  0  0  0  0
   30.2266   37.1746   23.8529 H   0  0  0  0  0  0  0  0  0  0  0  0
   36.2776   38.7806   28.9394 H   0  0  0  0  0  0  0  0  0  0  0  0
  1  2  2  0  0  0  0
  1  8  1  0  0  0  0
  2  9  1  0  0  0  0
  2 10  1  0  0  0  0
  3  4  1  0  0  0  0
  3 26  1  0  0  0  0
  4 29  1  0  0  0  0
  5 26  1  0  0  0  0
  5 27  1  0  0  0  0
  6 21  1  0  0  0  0
  7  8  1  0  0  0  0
  8 12  2  0  0  0  0
 10 11  2  0  0  0  0
 11 12  1  0  0  0  0
 12 13  1  0  0  0  0
 13 14  1  0  0  0  0
 14 15  1  0  0  0  0
 14 19  2  0  0  0  0
 15 16  2  0  0  0  0
 16 17  1  0  0  0  0
 16 22  1  0  0  0  0
 17 18  2  0  0  0  0
 18 24  1  0  0  0  0
 19 20  1  0  0  0  0
 19 21  1  0  0  0  0
 21 22  1  0  0  0  0
 22 23  2  0  0  0  0
 23 24  1  0  0  0  0
 24 25  2  0  0  0  0
 25 26  1  0  0  0  0
 27 28  1  0  0  0  0
  1 30  1  0  0  0  0
  3 31  1  0  0  0  0
  3 32  1  0  0  0  0
  4 33  1  0  0  0  0
  4 34  1  0  0  0  0
  5 35  1  0  0  0  0
  5 36  1  0  0  0  0
  6 37  1  0  0  0  0
  6 38  1  0  0  0  0
  6 39  1  0  0  0  0
 10 40  1  0  0  0  0
 11 41  1  0  0  0  0
 15 42  1  0  0  0  0
 17 43  1  0  0  0  0
 20 44  1  0  0  0  0
 26 45  1  0  0  0  0
 27 46  1  0  0  0  0
 27 47  1  0  0  0  0
 28 48  1  0  0  0  0
 29 49  1  0  0  0  0
M  END
> <r_user_dG.exp>
-10.683

$$$$
p38a_3flw
  -OEChem-05162309453D
 Structure written by MMmdl.
 49 51  0     1  0  0  0  0  0999 V2000
   38.3390   36.6732   17.0574 C   0  0  0  0  0  0  0  0  0  0  0  0
   37.6670   36.6212   15.8212 C   0  0  0  0  0  0  0  0  0  0  0  0
   33.5281   39.4364   27.3316 C   0  0  0  0  0  0  0  0  0  0  0  0
   34.9049   38.7976   27.5610 C   0  0  0  0  0  0  0  0  0  0  0  0
   31.4189   39.4188   25.9024 C   0  0  0  0  0  0  0  0  0  0  0  0
   33.4672   34.8125   23.3952 C   0  0  0  0  0  0  0  0  0  0  0  0
   38.3758   36.2250   19.4044 F   0  0  0  0  0  0  0  0  0  0  0  0
   37.7408   36.1338   18.2118 C   0  0  0  0  0  0  0  0  0  0  0  0
   38.2121   37.1987   14.7266 F   0  0  0  0  0  0  0  0  0  0  0  0
   36.4167   35.9838   15.7308 C   0  0  0  0  0  0  0  0  0  0  0  0
   35.8281   35.4259   16.8797 C   0  0  0  0  0  0  0  0  0  0  0  0
   36.4736   35.5188   18.1281 C   0  0  0  0  0  0  0  0  0  0  0  0
   35.8847   34.9357   19.2218 O   0  0  0  0  0  0  0  0  0  0  0  0
   35.3223   35.6836   20.2329 C   0  0  0  0  0  0  0  0  0  0  0  0
   35.4160   37.0309   20.3178 C   0  0  0  0  0  0  0  0  0  0  0  0
   34.8964   37.7486   21.4749 C   0  0  3  0  0  0  0  0  0  0  0  0
   35.0144   39.1441   21.6469 C   0  0  0  0  0  0  0  0  0  0  0  0
   34.6050   39.7559   22.7793 N   0  0  0  0  0  0  0  0  0  0  0  0
   34.6208   34.9125   21.2655 C   0  0  0  0  0  0  0  0  0  0  0  0
   34.4686   33.6966   21.1598 O   0  0  0  0  0  0  0  0  0  0  0  0
   34.1449   35.5950   22.3469 N   0  0  0  0  0  0  0  0  0  0  0  0
   34.2884   37.0112   22.5117 C   0  0  0  0  0  0  0  0  0  0  0  0
   33.8757   37.6552   23.6268 N   0  0  0  0  0  0  0  0  0  0  0  0
   34.0662   38.9716   23.7113 C   0  0  0  0  0  0  0  0  0  0  0  0
   33.6452   39.5897   24.8695 N   0  0  0  0  0  0  0  0  0  0  0  0
   32.9030   39.0189   25.9874 C   0  0  0  0  0  0  0  0  0  0  0  0
   30.6868   38.8865   24.6577 C   0  0  0  0  0  0  0  0  0  0  0  0
   30.6837   37.4753   24.6295 O   0  0  0  0  0  0  0  0  0  0  0  0
   35.4267   39.1835   28.8127 O   0  0  0  0  0  0  0  0  0  0  0  0
   39.3164   37.1283   17.1201 H   0  0  0  0  0  0  0  0  0  0  0  0
   32.8554   39.1271   28.1451 H   0  0  0  0  0  0  0  0  0  0  0  0
   33.6400   40.5306   27.3443 H   0  0  0  0  0  0  0  0  0  0  0  0
   34.8050   37.7025   27.5327 H   0  0  0  0  0  0  0  0  0  0  0  0
   35.5921   39.1238   26.7664 H   0  0  0  0  0  0  0  0  0  0  0  0
   30.9065   39.0307   26.7950 H   0  0  0  0  0  0  0  0  0  0  0  0
   31.3586   40.5171   25.8934 H   0  0  0  0  0  0  0  0  0  0  0  0
   33.1375   35.4855   24.2004 H   0  0  0  0  0  0  0  0  0  0  0  0
   32.5938   34.3013   22.9641 H   0  0  0  0  0  0  0  0  0  0  0  0
   34.1642   34.0660   23.8037 H   0  0  0  0  0  0  0  0  0  0  0  0
   35.9088   35.9228   14.7796 H   0  0  0  0  0  0  0  0  0  0  0  0
   34.8752   34.9231   16.8043 H   0  0  0  0  0  0  0  0  0  0  0  0
   35.8831   37.5829   19.5156 H   0  0  0  0  0  0  0  0  0  0  0  0
   33.9243   37.8774   20.9764 H   0  0  0  0  0  0  0  0  0  0  0  0
   35.4429   39.7380   20.8531 H   0  0  0  0  0  0  0  0  0  0  0  0
   32.9567   37.9222   25.9217 H   0  0  0  0  0  0  0  0  0  0  0  0
   29.6476   39.2470   24.6716 H   0  0  0  0  0  0  0  0  0  0  0  0
   31.1931   39.2619   23.7562 H   0  0  0  0  0  0  0  0  0  0  0  0
   30.2266   37.1746   23.8529 H   0  0  0  0  0  0  0  0  0  0  0  0
   36.2776   38.7806   28.9394 H   0  0  0  0  0  0  0  0  0  0  0  0
  1  2  2  0  0  0  0
  1  8  1  0  0  0  0
  2  9  1  0  0  0  0
  2 10  1  0  0  0  0
  3  4  1  0  0  0  0
  3 26  1  0  0  0  0
  4 29  1  0  0  0  0
  5 26  1  0  0  0  0
  5 27  1  0  0  0  0
  6 21  1  0  0  0  0
  7  8  1  0  0  0  0
  8 12  2  0  0  0  0
 10 11  2  0  0  0  0
 11 12  1  0  0  0  0
 12 13  1  0  0  0  0
 13 14  1  0  0  0  0
 14 15  2  0  0  0  0
 14 19  1  0  0  0  0
 15 16  1  0  0  0  0
 16 17  1  0  0  0  0
 16 22  1  0  0  0  0
 17 18  2  0  0  0  0
 18 24  1  0  0  0  0
 19 20  2  0  0  0  0
 19 21  1  0  0  0  0
 21 22  1  0  0  0  0
 22 23  2  0  0  0  0
 23 24  1  0  0  0  0
 24 25  2  0  0  0  0
 25 26  1  0  0  0  0
 27 28  1  0  0  0  0
  1 30  1  0  0  0  0
  3 31  1  0  0  0  0
  3 32  1  0  0  0  0
  4 33  1  0  0  0  0
  4 34  1  0  0  0  0
  5 35  1  0  0  0  0
  5 36  1  0  0  0  0
  6 37  1  0  0  0  0
  6 38  1  0  0  0  0
  6 39  1  0  0  0  0
 10 40  1  0  0  0  0
 11 41  1  0  0  0  0
 15 42  1  0  0  0  0
 16 43  1  0  0  0  0
 17 44  1  0  0  0  0
 26 45  1  0  0  0  0
 27 46  1  0  0  0  0
 27 47  1  0  0  0  0
 28 48  1  0  0  0  0
 29 49  1  0  0  0  0
M  END
> <r_user_dG.exp>
-10.683

$$$$
p38a_3flw
  -OEChem-05162309453D
 Structure written by MMmdl.
 49 51  0     1  0  0  0  0  0999 V2000
   38.3390   36.6732   17.0574 C   0  0  0  0  0  0  0  0  0  0  0  0
   37.6670   36.6212   15.8212 C   0  0  0  0  0  0  0  0  0  0  0  0
   33.5281   39.4364   27.3316 C   0  0  0  0  0  0  0  0  0  0  0  0
   34.9049   38.7976   27.5610 C   0  0  0  0  0  0  0  0  0  0  0  0
   31.4189   39.4188   25.9024 C   0  0  0  0  0  0  0  0  0  0  0  0
   33.4672   34.8125   23.3952 C   0  0  0  0  0  0  0  0  0  0  0  0
   38.3758   36.2250   19.4044 F   0  0  0  0  0  0  0  0  0  0  0  0
   37.7408   36.1338   18.2118 C   0  0  0  0  0  0  0  0  0  0  0  0
   38.2121   37.1987   14.7266 F   0  0  0  0  0  0  0  0  0  0  0  0
   36.4167   35.9838   15.7308 C   0  0  0  0  0  0  0  0  0  0  0  0
   35.8281   35.4259   16.8797 C   0  0  0  0  0  0  0  0  0  0  0  0
   36.4736   35.5188   18.1281 C   0  0  0  0  0  0  0  0  0  0  0  0
   35.8847   34.9357   19.2218 O   0  0  0  0  0  0  0  0  0  0  0  0
   35.3223   35.6836   20.2329 C   0  0  3  0  0  0  0  0  0  0  0  0
   35.4160   37.0309   20.3178 C   0  0  0  0  0  0  0  0  0  0  0  0
   34.8964   37.7486   21.4749 C   0  0  0  0  0  0  0  0  0  0  0  0
   35.0144   39.1441   21.6469 C   0  0  0  0  0  0  0  0  0  0  0  0
   34.6050   39.7559   22.7793 N   0  0  0  0  0  0  0  0  0  0  0  0
   34.6208   34.9125   21.2655 C   0  0  0  0  0  0  0  0  0  0  0  0
   34.4686   33.6966   21.1598 O   0  0  0  0  0  0  0  0  0  0  0  0
   34.1449   35.5950   22.3469 N   0  0  0  0  0  0  0  0  0  0  0  0
   34.2884   37.0112   22.5117 C   0  0  0  0  0  0  0  0  0  0  0  0
   33.8757   37.6552   23.6268 N   0  0  0  0  0  0  0  0  0  0  0  0
   34.0662   38.9716   23.7113 C   0  0  0  0  0  0  0  0  0  0  0  0
   33.6452   39.5897   24.8695 N   0  0  0  0  0  0  0  0  0  0  0  0
   32.9030   39.0189   25.9874 C   0  0  0  0  0  0  0  0  0  0  0  0
   30.6868   38.8865   24.6577 C   0  0  0  0  0  0  0  0  0  0  0  0
   30.6837   37.4753   24.6295 O   0  0  0  0  0  0  0  0  0  0  0  0
   35.4267   39.1835   28.8127 O   0  0  0  0  0  0  0  0  0  0  0  0
   39.3164   37.1283   17.1201 H   0  0  0  0  0  0  0  0  0  0  0  0
   32.8554   39.1271   28.1451 H   0  0  0  0  0  0  0  0  0  0  0  0
   33.6400   40.5306   27.3443 H   0  0  0  0  0  0  0  0  0  0  0  0
   34.8050   37.7025   27.5327 H   0  0  0  0  0  0  0  0  0  0  0  0
   35.5921   39.1238   26.7664 H   0  0  0  0  0  0  0  0  0  0  0  0
   30.9065   39.0307   26.7950 H   0  0  0  0  0  0  0  0  0  0  0  0
   31.3586   40.5171   25.8934 H   0  0  0  0  0  0  0  0  0  0  0  0
   33.1375   35.4855   24.2004 H   0  0  0  0  0  0  0  0  0  0  0  0
   32.5938   34.3013   22.9641 H   0  0  0  0  0  0  0  0  0  0  0  0
   34.1642   34.0660   23.8037 H   0  0  0  0  0  0  0  0  0  0  0  0
   35.9088   35.9228   14.7796 H   0  0  0  0  0  0  0  0  0  0  0  0
   34.8752   34.9231   16.8043 H   0  0  0  0  0  0  0  0  0  0  0  0
   34.3896   35.7761   19.6571 H   0  0  0  0  0  0  0  0  0  0  0  0
   35.8831   37.5829   19.5156 H   0  0  0  0  0  0  0  0  0  0  0  0
   35.4429   39.7380   20.8531 H   0  0  0  0  0  0  0  0  0  0  0  0
   32.9567   37.9222   25.9217 H   0  0  0  0  0  0  0  0  0  0  0  0
   29.6476   39.2470   24.6716 H   0  0  0  0  0  0  0  0  0  0  0  0
   31.1931   39.2619   23.7562 H   0  0  0  0  0  0  0  0  0  0  0  0
   30.2266   37.1746   23.8529 H   0  0  0  0  0  0  0  0  0  0  0  0
   36.2776   38.7806   28.9394 H   0  0  0  0  0  0  0  0  0  0  0  0
  1  2  2  0  0  0  0
  1  8  1  0  0  0  0
  2  9  1  0  0  0  0
  2 10  1  0  0  0  0
  3  4  1  0  0  0  0
  3 26  1  0  0  0  0
  4 29  1  0  0  0  0
  5 26  1  0  0  0  0
  5 27  1  0  0  0  0
  6 21  1  0  0  0  0
  7  8  1  0  0  0  0
  8 12  2  0  0  0  0
 10 11  2  0  0  0  0
 11 12  1  0  0  0  0
 12 13  1  0  0  0  0
 13 14  1  0  0  0  0
 14 15  1  0  0  0  0
 14 19  1  0  0  0  0
 15 16  2  0  0  0  0
 16 17  1  0  0  0  0
 16 22  1  0  0  0  0
 17 18  2  0  0  0  0
 18 24  1  0  0  0  0
 19 20  2  0  0  0  0
 19 21  1  0  0  0  0
 21 22  1  0  0  0  0
 22 23  2  0  0  0  0
 23 24  1  0  0  0  0
 24 25  2  0  0  0  0
 25 26  1  0  0  0  0
 27 28  1  0  0  0  0
  1 30  1  0  0  0  0
  3 31  1  0  0  0  0
  3 32  1  0  0  0  0
  4 33  1  0  0  0  0
  4 34  1  0  0  0  0
  5 35  1  0  0  0  0
  5 36  1  0  0  0  0
  6 37  1  0  0  0  0
  6 38  1  0  0  0  0
  6 39  1  0  0  0  0
 10 40  1  0  0  0  0
 11 41  1  0  0  0  0
 14 42  1  0  0  0  0
 15 43  1  0  0  0  0
 17 44  1  0  0  0  0
 26 45  1  0  0  0  0
 27 46  1  0  0  0  0
 27 47  1  0  0  0  0
 28 48  1  0  0  0  0
 29 49  1  0  0  0  0
M  END
> <r_user_dG.exp>
-10.683

$$$$
