p38a_3fmk
  -OEChem-05162309453D
 Structure written by MMmdl.
 46 49  0     1  0  0  0  0  0999 V2000
   37.4499   36.1830   18.1487 C   0  0  0  0  0  0  0  0  0  0  0  0
   38.1696   36.6865   17.0471 C   0  0  0  0  0  0  0  0  0  0  0  0
   33.9960   34.9417   23.6436 C   0  0  0  0  0  0  0  0  0  0  0  0
   36.1722   36.5213   15.6625 C   0  0  0  0  0  0  0  0  0  0  0  0
   34.9655   39.3394   21.6756 C   0  0  0  0  0  0  0  0  0  0  0  0
   33.7550   39.0892   26.3355 C   0  0  1  0  0  0  0  0  0  0  0  0
   32.2216   39.1946   26.4393 C   0  0  0  0  0  0  0  0  0  0  0  0
   34.4641   39.1128   23.8852 C   0  0  0  0  0  0  0  0  0  0  0  0
   34.5805   35.1104   21.2894 C   0  0  0  0  0  0  0  0  0  0  0  0
   35.0705   35.9158   20.1637 C   0  0  0  0  0  0  0  0  0  0  0  0
   35.1769   37.2591   20.2658 C   0  0  0  0  0  0  0  0  0  0  0  0
   36.0947   35.8168   17.9992 C   0  0  0  0  0  0  0  0  0  0  0  0
   35.4579   36.0034   16.7577 C   0  0  0  0  0  0  0  0  0  0  0  0
   34.8891   37.9415   21.5155 C   0  0  0  0  0  0  0  0  0  0  0  0
   34.5405   37.1689   22.6422 C   0  0  0  0  0  0  0  0  0  0  0  0
   34.2339   39.7075   25.1064 N   0  0  0  0  0  0  0  0  0  0  0  0
   37.5311   36.8528   15.8039 C   0  0  0  0  0  0  0  0  0  0  0  0
   38.2117   37.3536   14.7474 F   0  0  0  0  0  0  0  0  0  0  0  0
   38.0544   36.0747   19.3543 F   0  0  0  0  0  0  0  0  0  0  0  0
   35.4035   35.2192   19.0260 O   0  0  0  0  0  0  0  0  0  0  0  0
   34.3338   33.9107   21.1622 O   0  0  0  0  0  0  0  0  0  0  0  0
   34.4048   35.7500   22.4822 N   0  0  0  0  0  0  0  0  0  0  0  0
   34.3407   37.7866   23.8262 N   0  0  0  0  0  0  0  0  0  0  0  0
   34.7556   39.9268   22.8724 N   0  0  0  0  0  0  0  0  0  0  0  0
   34.4411   39.7232   27.5517 C   0  0  0  0  0  0  0  0  0  0  0  0
   31.5339   38.4194   25.4203 N   0  0  0  0  0  0  0  0  0  0  0  0
   30.8990   38.9813   24.3738 N   0  0  0  0  0  0  0  0  0  0  0  0
   30.4889   37.8869   23.7525 C   0  0  0  0  0  0  0  0  0  0  0  0
   30.8476   36.7261   24.3686 N   0  0  0  0  0  0  0  0  0  0  0  0
   31.4960   37.0716   25.4318 N   0  0  0  0  0  0  0  0  0  0  0  0
   39.2124   36.9451   17.1568 H   0  0  0  0  0  0  0  0  0  0  0  0
   33.8953   35.5911   24.5258 H   0  0  0  0  0  0  0  0  0  0  0  0
   33.0308   34.4583   23.4323 H   0  0  0  0  0  0  0  0  0  0  0  0
   34.7565   34.1716   23.8402 H   0  0  0  0  0  0  0  0  0  0  0  0
   35.6771   36.6643   14.7134 H   0  0  0  0  0  0  0  0  0  0  0  0
   35.1977   39.9558   20.8197 H   0  0  0  0  0  0  0  0  0  0  0  0
   34.0171   38.0210   26.3202 H   0  0  0  0  0  0  0  0  0  0  0  0
   31.9103   38.8289   27.4289 H   0  0  0  0  0  0  0  0  0  0  0  0
   31.9337   40.2508   26.3315 H   0  0  0  0  0  0  0  0  0  0  0  0
   35.4809   37.8348   19.4041 H   0  0  0  0  0  0  0  0  0  0  0  0
   34.4147   35.7473   16.6456 H   0  0  0  0  0  0  0  0  0  0  0  0
   33.5707   40.4306   24.9133 H   0  0  0  0  0  0  0  0  0  0  0  0
   35.5323   39.6315   27.4469 H   0  0  0  0  0  0  0  0  0  0  0  0
   34.1669   40.7867   27.6142 H   0  0  0  0  0  0  0  0  0  0  0  0
   34.1160   39.2064   28.4667 H   0  0  0  0  0  0  0  0  0  0  0  0
   29.9187   37.9121   22.8356 H   0  0  0  0  0  0  0  0  0  0  0  0
  1  2  2  0  0  0  0
  1 12  1  0  0  0  0
  1 19  1  0  0  0  0
  2 17  1  0  0  0  0
  3 22  1  0  0  0  0
  4 13  1  0  0  0  0
  4 17  2  0  0  0  0
  5 14  2  0  0  0  0
  5 24  1  0  0  0  0
  6  7  1  0  0  0  0
  6 16  1  0  0  0  0
  6 25  1  0  0  0  0
  7 26  1  0  0  0  0
  8 16  1  0  0  0  0
  8 23  1  0  0  0  0
  8 24  2  0  0  0  0
  9 10  1  0  0  0  0
  9 21  2  0  0  0  0
  9 22  1  0  0  0  0
 10 11  2  0  0  0  0
 10 20  1  0  0  0  0
 11 14  1  0  0  0  0
 12 13  2  0  0  0  0
 12 20  1  0  0  0  0
 14 15  1  0  0  0  0
 15 22  1  0  0  0  0
 15 23  2  0  0  0  0
 17 18  1  0  0  0  0
 26 27  1  0  0  0  0
 26 30  1  0  0  0  0
 27 28  2  0  0  0  0
 28 29  1  0  0  0  0
 29 30  2  0  0  0  0
  2 31  1  0  0  0  0
  3 32  1  0  0  0  0
  3 33  1  0  0  0  0
  3 34  1  0  0  0  0
  4 35  1  0  0  0  0
  5 36  1  0  0  0  0
  6 37  1  0  0  0  0
  7 38  1  0  0  0  0
  7 39  1  0  0  0  0
 11 40  1  0  0  0  0
 13 41  1  0  0  0  0
 16 42  1  0  0  0  0
 25 43  1  0  0  0  0
 25 44  1  0  0  0  0
 25 45  1  0  0  0  0
 28 46  1  0  0  0  0
M  END
> <r_user_dG.exp>
-11.8325

$$$$
p38a_3fmk
  -OEChem-05162309453D
 Structure written by MMmdl.
 46 49  0     1  0  0  0  0  0999 V2000
   37.4499   36.1830   18.1487 C   0  0  0  0  0  0  0  0  0  0  0  0
   38.1696   36.6865   17.0471 C   0  0  0  0  0  0  0  0  0  0  0  0
   33.9960   34.9417   23.6436 C   0  0  0  0  0  0  0  0  0  0  0  0
   36.1722   36.5213   15.6625 C   0  0  0  0  0  0  0  0  0  0  0  0
   34.9655   39.3394   21.6756 C   0  0  0  0  0  0  0  0  0  0  0  0
   33.7550   39.0892   26.3355 C   0  0  1  0  0  0  0  0  0  0  0  0
   32.2216   39.1946   26.4393 C   0  0  0  0  0  0  0  0  0  0  0  0
   34.4641   39.1128   23.8852 C   0  0  0  0  0  0  0  0  0  0  0  0
   34.5805   35.1104   21.2894 C   0  0  0  0  0  0  0  0  0  0  0  0
   35.0705   35.9158   20.1637 C   0  0  0  0  0  0  0  0  0  0  0  0
   35.1769   37.2591   20.2658 C   0  0  0  0  0  0  0  0  0  0  0  0
   36.0947   35.8168   17.9992 C   0  0  0  0  0  0  0  0  0  0  0  0
   35.4579   36.0034   16.7577 C   0  0  0  0  0  0  0  0  0  0  0  0
   34.8891   37.9415   21.5155 C   0  0  0  0  0  0  0  0  0  0  0  0
   34.5405   37.1689   22.6422 C   0  0  0  0  0  0  0  0  0  0  0  0
   34.2339   39.7075   25.1064 N   0  0  0  0  0  0  0  0  0  0  0  0
   37.5311   36.8528   15.8039 C   0  0  0  0  0  0  0  0  0  0  0  0
   38.2117   37.3536   14.7474 F   0  0  0  0  0  0  0  0  0  0  0  0
   38.0544   36.0747   19.3543 F   0  0  0  0  0  0  0  0  0  0  0  0
   35.4035   35.2192   19.0260 O   0  0  0  0  0  0  0  0  0  0  0  0
   34.3338   33.9107   21.1622 O   0  0  0  0  0  0  0  0  0  0  0  0
   34.4048   35.7500   22.4822 N   0  0  0  0  0  0  0  0  0  0  0  0
   34.3407   37.7866   23.8262 N   0  0  0  0  0  0  0  0  0  0  0  0
   34.7556   39.9268   22.8724 N   0  0  0  0  0  0  0  0  0  0  0  0
   34.4411   39.7232   27.5517 C   0  0  0  0  0  0  0  0  0  0  0  0
   31.5339   38.4194   25.4203 N   0  0  0  0  0  0  0  0  0  0  0  0
   30.8990   38.9813   24.3738 N   0  0  0  0  0  0  0  0  0  0  0  0
   30.4889   37.8869   23.7525 C   0  0  0  0  0  0  0  0  0  0  0  0
   30.8476   36.7261   24.3686 N   0  0  0  0  0  0  0  0  0  0  0  0
   31.4960   37.0716   25.4318 N   0  0  0  0  0  0  0  0  0  0  0  0
   39.2124   36.9451   17.1568 H   0  0  0  0  0  0  0  0  0  0  0  0
   33.8953   35.5911   24.5258 H   0  0  0  0  0  0  0  0  0  0  0  0
   33.0308   34.4583   23.4323 H   0  0  0  0  0  0  0  0  0  0  0  0
   34.7565   34.1716   23.8402 H   0  0  0  0  0  0  0  0  0  0  0  0
   35.6771   36.6643   14.7134 H   0  0  0  0  0  0  0  0  0  0  0  0
   35.1977   39.9558   20.8197 H   0  0  0  0  0  0  0  0  0  0  0  0
   34.0171   38.0210   26.3202 H   0  0  0  0  0  0  0  0  0  0  0  0
   31.9103   38.8289   27.4289 H   0  0  0  0  0  0  0  0  0  0  0  0
   31.9337   40.2508   26.3315 H   0  0  0  0  0  0  0  0  0  0  0  0
   35.4809   37.8348   19.4041 H   0  0  0  0  0  0  0  0  0  0  0  0
   34.4147   35.7473   16.6456 H   0  0  0  0  0  0  0  0  0  0  0  0
   34.1048   37.2597   24.6427 H   0  0  0  0  0  0  0  0  0  0  0  0
   35.5323   39.6315   27.4469 H   0  0  0  0  0  0  0  0  0  0  0  0
   34.1669   40.7867   27.6142 H   0  0  0  0  0  0  0  0  0  0  0  0
   34.1160   39.2064   28.4667 H   0  0  0  0  0  0  0  0  0  0  0  0
   29.9187   37.9121   22.8356 H   0  0  0  0  0  0  0  0  0  0  0  0
  1  2  2  0  0  0  0
  1 12  1  0  0  0  0
  1 19  1  0  0  0  0
  2 17  1  0  0  0  0
  3 22  1  0  0  0  0
  4 13  1  0  0  0  0
  4 17  2  0  0  0  0
  5 14  1  0  0  0  0
  5 24  2  0  0  0  0
  6  7  1  0  0  0  0
  6 16  1  0  0  0  0
  6 25  1  0  0  0  0
  7 26  1  0  0  0  0
  8 16  2  0  0  0  0
  8 23  1  0  0  0  0
  8 24  1  0  0  0  0
  9 10  1  0  0  0  0
  9 21  2  0  0  0  0
  9 22  1  0  0  0  0
 10 11  2  0  0  0  0
 10 20  1  0  0  0  0
 11 14  1  0  0  0  0
 12 13  2  0  0  0  0
 12 20  1  0  0  0  0
 14 15  2  0  0  0  0
 15 22  1  0  0  0  0
 15 23  1  0  0  0  0
 17 18  1  0  0  0  0
 26 27  1  0  0  0  0
 26 30  1  0  0  0  0
 27 28  2  0  0  0  0
 28 29  1  0  0  0  0
 29 30  2  0  0  0  0
  2 31  1  0  0  0  0
  3 32  1  0  0  0  0
  3 33  1  0  0  0  0
  3 34  1  0  0  0  0
  4 35  1  0  0  0  0
  5 36  1  0  0  0  0
  6 37  1  0  0  0  0
  7 38  1  0  0  0  0
  7 39  1  0  0  0  0
 11 40  1  0  0  0  0
 13 41  1  0  0  0  0
 23 42  1  0  0  0  0
 25 43  1  0  0  0  0
 25 44  1  0  0  0  0
 25 45  1  0  0  0  0
 28 46  1  0  0  0  0
M  END
> <r_user_dG.exp>
-11.8325

$$$$
p38a_3fmk
  -OEChem-05162309453D
 Structure written by MMmdl.
 46 49  0     1  0  0  0  0  0999 V2000
   37.4499   36.1830   18.1487 C   0  0  0  0  0  0  0  0  0  0  0  0
   38.1696   36.6865   17.0471 C   0  0  0  0  0  0  0  0  0  0  0  0
   33.9960   34.9417   23.6436 C   0  0  0  0  0  0  0  0  0  0  0  0
   36.1722   36.5213   15.6625 C   0  0  0  0  0  0  0  0  0  0  0  0
   34.9655   39.3394   21.6756 C   0  0  0  0  0  0  0  0  0  0  0  0
   33.7550   39.0892   26.3355 C   0  0  1  0  0  0  0  0  0  0  0  0
   32.2216   39.1946   26.4393 C   0  0  0  0  0  0  0  0  0  0  0  0
   34.4641   39.1128   23.8852 C   0  0  0  0  0  0  0  0  0  0  0  0
   34.5805   35.1104   21.2894 C   0  0  0  0  0  0  0  0  0  0  0  0
   35.0705   35.9158   20.1637 C   0  0  0  0  0  0  0  0  0  0  0  0
   35.1769   37.2591   20.2658 C   0  0  0  0  0  0  0  0  0  0  0  0
   36.0947   35.8168   17.9992 C   0  0  0  0  0  0  0  0  0  0  0  0
   35.4579   36.0034   16.7577 C   0  0  0  0  0  0  0  0  0  0  0  0
   34.8891   37.9415   21.5155 C   0  0  0  0  0  0  0  0  0  0  0  0
   34.5405   37.1689   22.6422 C   0  0  0  0  0  0  0  0  0  0  0  0
   34.2339   39.7075   25.1064 N   0  0  0  0  0  0  0  0  0  0  0  0
   37.5311   36.8528   15.8039 C   0  0  0  0  0  0  0  0  0  0  0  0
   38.2117   37.3536   14.7474 F   0  0  0  0  0  0  0  0  0  0  0  0
   38.0544   36.0747   19.3543 F   0  0  0  0  0  0  0  0  0  0  0  0
   35.4035   35.2192   19.0260 O   0  0  0  0  0  0  0  0  0  0  0  0
   34.3338   33.9107   21.1622 O   0  0  0  0  0  0  0  0  0  0  0  0
   34.4048   35.7500   22.4822 N   0  0  0  0  0  0  0  0  0  0  0  0
   34.3407   37.7866   23.8262 N   0  0  0  0  0  0  0  0  0  0  0  0
   34.7556   39.9268   22.8724 N   0  0  0  0  0  0  0  0  0  0  0  0
   34.4411   39.7232   27.5517 C   0  0  0  0  0  0  0  0  0  0  0  0
   31.5339   38.4194   25.4203 N   0  0  0  0  0  0  0  0  0  0  0  0
   30.8990   38.9813   24.3738 N   0  0  0  0  0  0  0  0  0  0  0  0
   30.4889   37.8869   23.7525 C   0  0  0  0  0  0  0  0  0  0  0  0
   30.8476   36.7261   24.3686 N   0  0  0  0  0  0  0  0  0  0  0  0
   31.4960   37.0716   25.4318 N   0  0  0  0  0  0  0  0  0  0  0  0
   39.2124   36.9451   17.1568 H   0  0  0  0  0  0  0  0  0  0  0  0
   33.8953   35.5911   24.5258 H   0  0  0  0  0  0  0  0  0  0  0  0
   33.0308   34.4583   23.4323 H   0  0  0  0  0  0  0  0  0  0  0  0
   34.7565   34.1716   23.8402 H   0  0  0  0  0  0  0  0  0  0  0  0
   35.6771   36.6643   14.7134 H   0  0  0  0  0  0  0  0  0  0  0  0
   35.1977   39.9558   20.8197 H   0  0  0  0  0  0  0  0  0  0  0  0
   34.0171   38.0210   26.3202 H   0  0  0  0  0  0  0  0  0  0  0  0
   31.9103   38.8289   27.4289 H   0  0  0  0  0  0  0  0  0  0  0  0
   31.9337   40.2508   26.3315 H   0  0  0  0  0  0  0  0  0  0  0  0
   35.4809   37.8348   19.4041 H   0  0  0  0  0  0  0  0  0  0  0  0
   34.4147   35.7473   16.6456 H   0  0  0  0  0  0  0  0  0  0  0  0
   34.8156   40.9178   22.9919 H   0  0  0  0  0  0  0  0  0  0  0  0
   35.5323   39.6315   27.4469 H   0  0  0  0  0  0  0  0  0  0  0  0
   34.1669   40.7867   27.6142 H   0  0  0  0  0  0  0  0  0  0  0  0
   34.1160   39.2064   28.4667 H   0  0  0  0  0  0  0  0  0  0  0  0
   29.9187   37.9121   22.8356 H   0  0  0  0  0  0  0  0  0  0  0  0
  1  2  2  0  0  0  0
  1 12  1  0  0  0  0
  1 19  1  0  0  0  0
  2 17  1  0  0  0  0
  3 22  1  0  0  0  0
  4 13  1  0  0  0  0
  4 17  2  0  0  0  0
  5 14  2  0  0  0  0
  5 24  1  0  0  0  0
  6  7  1  0  0  0  0
  6 16  1  0  0  0  0
  6 25  1  0  0  0  0
  7 26  1  0  0  0  0
  8 16  2  0  0  0  0
  8 23  1  0  0  0  0
  8 24  1  0  0  0  0
  9 10  1  0  0  0  0
  9 21  2  0  0  0  0
  9 22  1  0  0  0  0
 10 11  2  0  0  0  0
 10 20  1  0  0  0  0
 11 14  1  0  0  0  0
 12 13  2  0  0  0  0
 12 20  1  0  0  0  0
 14 15  1  0  0  0  0
 15 22  1  0  0  0  0
 15 23  2  0  0  0  0
 17 18  1  0  0  0  0
 26 27  1  0  0  0  0
 26 30  1  0  0  0  0
 27 28  2  0  0  0  0
 28 29  1  0  0  0  0
 29 30  2  0  0  0  0
  2 31  1  0  0  0  0
  3 32  1  0  0  0  0
  3 33  1  0  0  0  0
  3 34  1  0  0  0  0
  4 35  1  0  0  0  0
  5 36  1  0  0  0  0
  6 37  1  0  0  0  0
  7 38  1  0  0  0  0
  7 39  1  0  0  0  0
 11 40  1  0  0  0  0
 13 41  1  0  0  0  0
 24 42  1  0  0  0  0
 25 43  1  0  0  0  0
 25 44  1  0  0  0  0
 25 45  1  0  0  0  0
 28 46  1  0  0  0  0
M  END
> <r_user_dG.exp>
-11.8325

$$$$
p38a_3fmk
  -OEChem-05162309453D
 Structure written by MMmdl.
 46 49  0     1  0  0  0  0  0999 V2000
   37.4499   36.1830   18.1487 C   0  0  0  0  0  0  0  0  0  0  0  0
   38.1696   36.6865   17.0471 C   0  0  0  0  0  0  0  0  0  0  0  0
   33.9960   34.9417   23.6436 C   0  0  0  0  0  0  0  0  0  0  0  0
   36.1722   36.5213   15.6625 C   0  0  0  0  0  0  0  0  0  0  0  0
   34.9655   39.3394   21.6756 C   0  0  0  0  0  0  0  0  0  0  0  0
   33.7550   39.0892   26.3355 C   0  0  1  0  0  0  0  0  0  0  0  0
   32.2216   39.1946   26.4393 C   0  0  0  0  0  0  0  0  0  0  0  0
   34.4641   39.1128   23.8852 C   0  0  0  0  0  0  0  0  0  0  0  0
   34.5805   35.1104   21.2894 C   0  0  0  0  0  0  0  0  0  0  0  0
   35.0705   35.9158   20.1637 C   0  0  0  0  0  0  0  0  0  0  0  0
   35.1769   37.2591   20.2658 C   0  0  0  0  0  0  0  0  0  0  0  0
   36.0947   35.8168   17.9992 C   0  0  0  0  0  0  0  0  0  0  0  0
   35.4579   36.0034   16.7577 C   0  0  0  0  0  0  0  0  0  0  0  0
   34.8891   37.9415   21.5155 C   0  0  0  0  0  0  0  0  0  0  0  0
   34.5405   37.1689   22.6422 C   0  0  0  0  0  0  0  0  0  0  0  0
   34.2339   39.7075   25.1064 N   0  0  0  0  0  0  0  0  0  0  0  0
   37.5311   36.8528   15.8039 C   0  0  0  0  0  0  0  0  0  0  0  0
   38.2117   37.3536   14.7474 F   0  0  0  0  0  0  0  0  0  0  0  0
   38.0544   36.0747   19.3543 F   0  0  0  0  0  0  0  0  0  0  0  0
   35.4035   35.2192   19.0260 O   0  0  0  0  0  0  0  0  0  0  0  0
   34.3338   33.9107   21.1622 O   0  0  0  0  0  0  0  0  0  0  0  0
   34.4048   35.7500   22.4822 N   0  0  0  0  0  0  0  0  0  0  0  0
   34.3407   37.7866   23.8262 N   0  0  0  0  0  0  0  0  0  0  0  0
   34.7556   39.9268   22.8724 N   0  0  0  0  0  0  0  0  0  0  0  0
   34.4411   39.7232   27.5517 C   0  0  0  0  0  0  0  0  0  0  0  0
   31.5339   38.4194   25.4203 N   0  0  0  0  0  0  0  0  0  0  0  0
   30.8990   38.9813   24.3738 N   0  0  0  0  0  0  0  0  0  0  0  0
   30.4889   37.8869   23.7525 C   0  0  0  0  0  0  0  0  0  0  0  0
   30.8476   36.7261   24.3686 N   0  0  0  0  0  0  0  0  0  0  0  0
   31.4960   37.0716   25.4318 N   0  0  0  0  0  0  0  0  0  0  0  0
   39.2124   36.9451   17.1568 H   0  0  0  0  0  0  0  0  0  0  0  0
   33.8953   35.5911   24.5258 H   0  0  0  0  0  0  0  0  0  0  0  0
   33.0308   34.4583   23.4323 H   0  0  0  0  0  0  0  0  0  0  0  0
   34.7565   34.1716   23.8402 H   0  0  0  0  0  0  0  0  0  0  0  0
   35.6771   36.6643   14.7134 H   0  0  0  0  0  0  0  0  0  0  0  0
   35.1977   39.9558   20.8197 H   0  0  0  0  0  0  0  0  0  0  0  0
   34.0171   38.0210   26.3202 H   0  0  0  0  0  0  0  0  0  0  0  0
   31.9103   38.8289   27.4289 H   0  0  0  0  0  0  0  0  0  0  0  0
   31.9337   40.2508   26.3315 H   0  0  0  0  0  0  0  0  0  0  0  0
   35.4809   37.8348   19.4041 H   0  0  0  0  0  0  0  0  0  0  0  0
   34.4147   35.7473   16.6456 H   0  0  0  0  0  0  0  0  0  0  0  0
   34.0297   33.5599   21.9910 H   0  0  0  0  0  0  0  0  0  0  0  0
   35.5323   39.6315   27.4469 H   0  0  0  0  0  0  0  0  0  0  0  0
   34.1669   40.7867   27.6142 H   0  0  0  0  0  0  0  0  0  0  0  0
   34.1160   39.2064   28.4667 H   0  0  0  0  0  0  0  0  0  0  0  0
   29.9187   37.9121   22.8356 H   0  0  0  0  0  0  0  0  0  0  0  0
  1  2  2  0  0  0  0
  1 12  1  0  0  0  0
  1 19  1  0  0  0  0
  2 17  1  0  0  0  0
  3 22  1  0  0  0  0
  4 13  1  0  0  0  0
  4 17  2  0  0  0  0
  5 14  1  0  0  0  0
  5 24  2  0  0  0  0
  6  7  1  0  0  0  0
  6 16  1  0  0  0  0
  6 25  1  0  0  0  0
  7 26  1  0  0  0  0
  8 16  2  0  0  0  0
  8 23  1  0  0  0  0
  8 24  1  0  0  0  0
  9 10  2  0  0  0  0
  9 21  1  0  0  0  0
  9 22  1  0  0  0  0
 10 11  1  0  0  0  0
 10 20  1  0  0  0  0
 11 14  2  0  0  0  0
 12 13  2  0  0  0  0
 12 20  1  0  0  0  0
 14 15  1  0  0  0  0
 15 22  1  0  0  0  0
 15 23  2  0  0  0  0
 17 18  1  0  0  0  0
 26 27  1  0  0  0  0
 26 30  1  0  0  0  0
 27 28  2  0  0  0  0
 28 29  1  0  0  0  0
 29 30  2  0  0  0  0
  2 31  1  0  0  0  0
  3 32  1  0  0  0  0
  3 33  1  0  0  0  0
  3 34  1  0  0  0  0
  4 35  1  0  0  0  0
  5 36  1  0  0  0  0
  6 37  1  0  0  0  0
  7 38  1  0  0  0  0
  7 39  1  0  0  0  0
 11 40  1  0  0  0  0
 13 41  1  0  0  0  0
 21 42  1  0  0  0  0
 25 43  1  0  0  0  0
 25 44  1  0  0  0  0
 25 45  1  0  0  0  0
 28 46  1  0  0  0  0
M  END
> <r_user_dG.exp>
-11.8325

$$$$
p38a_3fmk
  -OEChem-05162309453D
 Structure written by MMmdl.
 46 49  0     1  0  0  0  0  0999 V2000
   37.4499   36.1830   18.1487 C   0  0  0  0  0  0  0  0  0  0  0  0
   38.1696   36.6865   17.0471 C   0  0  0  0  0  0  0  0  0  0  0  0
   33.9960   34.9417   23.6436 C   0  0  0  0  0  0  0  0  0  0  0  0
   36.1722   36.5213   15.6625 C   0  0  0  0  0  0  0  0  0  0  0  0
   34.9655   39.3394   21.6756 C   0  0  0  0  0  0  0  0  0  0  0  0
   33.7550   39.0892   26.3355 C   0  0  1  0  0  0  0  0  0  0  0  0
   32.2216   39.1946   26.4393 C   0  0  0  0  0  0  0  0  0  0  0  0
   34.4641   39.1128   23.8852 C   0  0  0  0  0  0  0  0  0  0  0  0
   34.5805   35.1104   21.2894 C   0  0  0  0  0  0  0  0  0  0  0  0
   35.0705   35.9158   20.1637 C   0  0  0  0  0  0  0  0  0  0  0  0
   35.1769   37.2591   20.2658 C   0  0  0  0  0  0  0  0  0  0  0  0
   36.0947   35.8168   17.9992 C   0  0  0  0  0  0  0  0  0  0  0  0
   35.4579   36.0034   16.7577 C   0  0  0  0  0  0  0  0  0  0  0  0
   34.8891   37.9415   21.5155 C   0  0  0  0  0  0  0  0  0  0  0  0
   34.5405   37.1689   22.6422 C   0  0  0  0  0  0  0  0  0  0  0  0
   34.2339   39.7075   25.1064 N   0  0  0  0  0  0  0  0  0  0  0  0
   37.5311   36.8528   15.8039 C   0  0  0  0  0  0  0  0  0  0  0  0
   38.2117   37.3536   14.7474 F   0  0  0  0  0  0  0  0  0  0  0  0
   38.0544   36.0747   19.3543 F   0  0  0  0  0  0  0  0  0  0  0  0
   35.4035   35.2192   19.0260 O   0  0  0  0  0  0  0  0  0  0  0  0
   34.3338   33.9107   21.1622 O   0  0  0  0  0  0  0  0  0  0  0  0
   34.4048   35.7500   22.4822 N   0  0  0  0  0  0  0  0  0  0  0  0
   34.3407   37.7866   23.8262 N   0  0  0  0  0  0  0  0  0  0  0  0
   34.7556   39.9268   22.8724 N   0  0  0  0  0  0  0  0  0  0  0  0
   34.4411   39.7232   27.5517 C   0  0  0  0  0  0  0  0  0  0  0  0
   31.5339   38.4194   25.4203 N   0  0  0  0  0  0  0  0  0  0  0  0
   30.8990   38.9813   24.3738 N   0  0  0  0  0  0  0  0  0  0  0  0
   30.4889   37.8869   23.7525 C   0  0  0  0  0  0  0  0  0  0  0  0
   30.8476   36.7261   24.3686 N   0  0  0  0  0  0  0  0  0  0  0  0
   31.4960   37.0716   25.4318 N   0  0  0  0  0  0  0  0  0  0  0  0
   39.2124   36.9451   17.1568 H   0  0  0  0  0  0  0  0  0  0  0  0
   33.8953   35.5911   24.5258 H   0  0  0  0  0  0  0  0  0  0  0  0
   33.0308   34.4583   23.4323 H   0  0  0  0  0  0  0  0  0  0  0  0
   34.7565   34.1716   23.8402 H   0  0  0  0  0  0  0  0  0  0  0  0
   35.6771   36.6643   14.7134 H   0  0  0  0  0  0  0  0  0  0  0  0
   35.1977   39.9558   20.8197 H   0  0  0  0  0  0  0  0  0  0  0  0
   34.0171   38.0210   26.3202 H   0  0  0  0  0  0  0  0  0  0  0  0
   31.9103   38.8289   27.4289 H   0  0  0  0  0  0  0  0  0  0  0  0
   31.9337   40.2508   26.3315 H   0  0  0  0  0  0  0  0  0  0  0  0
   35.4809   37.8348   19.4041 H   0  0  0  0  0  0  0  0  0  0  0  0
   34.4147   35.7473   16.6456 H   0  0  0  0  0  0  0  0  0  0  0  0
   33.8288   38.0241   21.2347 H   0  0  0  0  0  0  0  0  0  0  0  0
   35.5323   39.6315   27.4469 H   0  0  0  0  0  0  0  0  0  0  0  0
   34.1669   40.7867   27.6142 H   0  0  0  0  0  0  0  0  0  0  0  0
   34.1160   39.2064   28.4667 H   0  0  0  0  0  0  0  0  0  0  0  0
   29.9187   37.9121   22.8356 H   0  0  0  0  0  0  0  0  0  0  0  0
  1  2  2  0  0  0  0
  1 12  1  0  0  0  0
  1 19  1  0  0  0  0
  2 17  1  0  0  0  0
  3 22  1  0  0  0  0
  4 13  1  0  0  0  0
  4 17  2  0  0  0  0
  5 14  1  0  0  0  0
  5 24  2  0  0  0  0
  6  7  1  0  0  0  0
  6 16  1  0  0  0  0
  6 25  1  0  0  0  0
  7 26  1  0  0  0  0
  8 16  2  0  0  0  0
  8 23  1  0  0  0  0
  8 24  1  0  0  0  0
  9 10  1  0  0  0  0
  9 21  2  0  0  0  0
  9 22  1  0  0  0  0
 10 11  2  0  0  0  0
 10 20  1  0  0  0  0
 11 14  1  0  0  0  0
 12 13  2  0  0  0  0
 12 20  1  0  0  0  0
 14 15  1  0  0  0  0
 15 22  1  0  0  0  0
 15 23  2  0  0  0  0
 17 18  1  0  0  0  0
 26 27  1  0  0  0  0
 26 30  1  0  0  0  0
 27 28  2  0  0  0  0
 28 29  1  0  0  0  0
 29 30  2  0  0  0  0
  2 31  1  0  0  0  0
  3 32  1  0  0  0  0
  3 33  1  0  0  0  0
  3 34  1  0  0  0  0
  4 35  1  0  0  0  0
  5 36  1  0  0  0  0
  6 37  1  0  0  0  0
  7 38  1  0  0  0  0
  7 39  1  0  0  0  0
 11 40  1  0  0  0  0
 13 41  1  0  0  0  0
 14 42  1  0  0  0  0
 25 43  1  0  0  0  0
 25 44  1  0  0  0  0
 25 45  1  0  0  0  0
 28 46  1  0  0  0  0
M  END
> <r_user_dG.exp>
-11.8325

$$$$
p38a_3fmk
  -OEChem-05162309453D
 Structure written by MMmdl.
 46 49  0     1  0  0  0  0  0999 V2000
   37.4499   36.1830   18.1487 C   0  0  0  0  0  0  0  0  0  0  0  0
   38.1696   36.6865   17.0471 C   0  0  0  0  0  0  0  0  0  0  0  0
   33.9960   34.9417   23.6436 C   0  0  0  0  0  0  0  0  0  0  0  0
   36.1722   36.5213   15.6625 C   0  0  0  0  0  0  0  0  0  0  0  0
   34.9655   39.3394   21.6756 C   0  0  0  0  0  0  0  0  0  0  0  0
   33.7550   39.0892   26.3355 C   0  0  1  0  0  0  0  0  0  0  0  0
   32.2216   39.1946   26.4393 C   0  0  0  0  0  0  0  0  0  0  0  0
   34.4641   39.1128   23.8852 C   0  0  0  0  0  0  0  0  0  0  0  0
   34.5805   35.1104   21.2894 C   0  0  0  0  0  0  0  0  0  0  0  0
   35.0705   35.9158   20.1637 C   0  0  0  0  0  0  0  0  0  0  0  0
   35.1769   37.2591   20.2658 C   0  0  0  0  0  0  0  0  0  0  0  0
   36.0947   35.8168   17.9992 C   0  0  0  0  0  0  0  0  0  0  0  0
   35.4579   36.0034   16.7577 C   0  0  0  0  0  0  0  0  0  0  0  0
   34.8891   37.9415   21.5155 C   0  0  0  0  0  0  0  0  0  0  0  0
   34.5405   37.1689   22.6422 C   0  0  0  0  0  0  0  0  0  0  0  0
   34.2339   39.7075   25.1064 N   0  0  0  0  0  0  0  0  0  0  0  0
   37.5311   36.8528   15.8039 C   0  0  0  0  0  0  0  0  0  0  0  0
   38.2117   37.3536   14.7474 F   0  0  0  0  0  0  0  0  0  0  0  0
   38.0544   36.0747   19.3543 F   0  0  0  0  0  0  0  0  0  0  0  0
   35.4035   35.2192   19.0260 O   0  0  0  0  0  0  0  0  0  0  0  0
   34.3338   33.9107   21.1622 O   0  0  0  0  0  0  0  0  0  0  0  0
   34.4048   35.7500   22.4822 N   0  0  0  0  0  0  0  0  0  0  0  0
   34.3407   37.7866   23.8262 N   0  0  0  0  0  0  0  0  0  0  0  0
   34.7556   39.9268   22.8724 N   0  0  0  0  0  0  0  0  0  0  0  0
   34.4411   39.7232   27.5517 C   0  0  0  0  0  0  0  0  0  0  0  0
   31.5339   38.4194   25.4203 N   0  0  0  0  0  0  0  0  0  0  0  0
   30.8990   38.9813   24.3738 N   0  0  0  0  0  0  0  0  0  0  0  0
   30.4889   37.8869   23.7525 C   0  0  0  0  0  0  0  0  0  0  0  0
   30.8476   36.7261   24.3686 N   0  0  0  0  0  0  0  0  0  0  0  0
   31.4960   37.0716   25.4318 N   0  0  0  0  0  0  0  0  0  0  0  0
   39.2124   36.9451   17.1568 H   0  0  0  0  0  0  0  0  0  0  0  0
   33.8953   35.5911   24.5258 H   0  0  0  0  0  0  0  0  0  0  0  0
   33.0308   34.4583   23.4323 H   0  0  0  0  0  0  0  0  0  0  0  0
   34.7565   34.1716   23.8402 H   0  0  0  0  0  0  0  0  0  0  0  0
   35.6771   36.6643   14.7134 H   0  0  0  0  0  0  0  0  0  0  0  0
   35.1977   39.9558   20.8197 H   0  0  0  0  0  0  0  0  0  0  0  0
   34.0171   38.0210   26.3202 H   0  0  0  0  0  0  0  0  0  0  0  0
   31.9103   38.8289   27.4289 H   0  0  0  0  0  0  0  0  0  0  0  0
   31.9337   40.2508   26.3315 H   0  0  0  0  0  0  0  0  0  0  0  0
   36.1008   35.8058   20.5330 H   0  0  0  0  0  0  0  0  0  0  0  0
   35.4809   37.8348   19.4041 H   0  0  0  0  0  0  0  0  0  0  0  0
   34.4147   35.7473   16.6456 H   0  0  0  0  0  0  0  0  0  0  0  0
   35.5323   39.6315   27.4469 H   0  0  0  0  0  0  0  0  0  0  0  0
   34.1669   40.7867   27.6142 H   0  0  0  0  0  0  0  0  0  0  0  0
   34.1160   39.2064   28.4667 H   0  0  0  0  0  0  0  0  0  0  0  0
   29.9187   37.9121   22.8356 H   0  0  0  0  0  0  0  0  0  0  0  0
  1  2  2  0  0  0  0
  1 12  1  0  0  0  0
  1 19  1  0  0  0  0
  2 17  1  0  0  0  0
  3 22  1  0  0  0  0
  4 13  1  0  0  0  0
  4 17  2  0  0  0  0
  5 14  1  0  0  0  0
  5 24  2  0  0  0  0
  6  7  1  0  0  0  0
  6 16  1  0  0  0  0
  6 25  1  0  0  0  0
  7 26  1  0  0  0  0
  8 16  2  0  0  0  0
  8 23  1  0  0  0  0
  8 24  1  0  0  0  0
  9 10  1  0  0  0  0
  9 21  2  0  0  0  0
  9 22  1  0  0  0  0
 10 11  1  0  0  0  0
 10 20  1  0  0  0  0
 11 14  2  0  0  0  0
 12 13  2  0  0  0  0
 12 20  1  0  0  0  0
 14 15  1  0  0  0  0
 15 22  1  0  0  0  0
 15 23  2  0  0  0  0
 17 18  1  0  0  0  0
 26 27  1  0  0  0  0
 26 30  1  0  0  0  0
 27 28  2  0  0  0  0
 28 29  1  0  0  0  0
 29 30  2  0  0  0  0
  2 31  1  0  0  0  0
  3 32  1  0  0  0  0
  3 33  1  0  0  0  0
  3 34  1  0  0  0  0
  4 35  1  0  0  0  0
  5 36  1  0  0  0  0
  6 37  1  0  0  0  0
  7 38  1  0  0  0  0
  7 39  1  0  0  0  0
 10 40  1  0  0  0  0
 11 41  1  0  0  0  0
 13 42  1  0  0  0  0
 25 43  1  0  0  0  0
 25 44  1  0  0  0  0
 25 45  1  0  0  0  0
 28 46  1  0  0  0  0
M  END
> <r_user_dG.exp>
-11.8325

$$$$
