18660-1
  -OEChem-05192314073D
 Structure written by MMmdl.
 52 53  0     0  0  0  0  0  0999 V2000
   21.2242   13.7577   29.7743 C   0  0  0  0  0  0  0  0  0  0  0  0
   22.9858   13.4243   29.4250 S   0  0  0  0  0  0  0  0  0  0  0  0
   23.3325   14.1347   28.1853 O   0  0  0  0  0  0  0  0  0  0  0  0
   23.7515   13.6655   30.6540 O   0  0  0  0  0  0  0  0  0  0  0  0
   23.0345   11.6250   29.1007 C   0  0  0  0  0  0  0  0  0  0  0  0
   23.2416   10.8260   30.3896 C   0  0  0  0  0  0  0  0  0  0  0  0
   22.1374   11.0915   31.2625 O   0  0  0  0  0  0  0  0  0  0  0  0
   21.3481   10.0698   31.7543 C   0  0  0  0  0  0  0  0  0  0  0  0
   21.6928    8.8106   31.3991 N   0  0  0  0  0  0  0  0  0  0  0  0
   20.9169    7.7999   31.7865 C   0  0  0  0  0  0  0  0  0  0  0  0
   19.7851    7.9631   32.5715 C   0  0  0  0  0  0  0  0  0  0  0  0
   19.4339    9.2500   32.9461 C   0  0  0  0  0  0  0  0  0  0  0  0
   18.2722    9.3640   33.7009 N   0  0  0  0  0  0  0  0  0  0  0  0
   20.2235   10.3414   32.5432 C   0  0  0  0  0  0  0  0  0  0  0  0
   19.9110   11.7214   32.8945 C   0  0  0  0  0  0  0  0  0  0  0  0
   19.6714   12.8208   33.1675 N   0  0  0  0  0  0  0  0  0  0  0  0
   21.4154    6.6269   31.2767 N   0  0  0  0  0  0  0  0  0  0  0  0
   20.7987    5.4740   31.0443 C   0  0  0  0  0  0  0  0  0  0  0  0
   19.6158    5.2719   31.3028 O   0  0  0  0  0  0  0  0  0  0  0  0
   21.6200    4.4088   30.3253 C   0  0  0  0  0  0  0  0  0  0  0  0
   22.9824    4.1291   30.9583 C   0  0  0  0  0  0  0  0  0  0  0  0
   24.0821    4.9595   30.6887 C   0  0  0  0  0  0  0  0  0  0  0  0
   23.8687    6.0491   29.8635 O   0  0  0  0  0  0  0  0  0  0  0  0
   24.9419    6.9455   29.5869 C   0  0  0  0  0  0  0  0  0  0  0  0
   25.3204    4.6479   31.2676 C   0  0  0  0  0  0  0  0  0  0  0  0
   25.4495    3.5512   32.1202 C   0  0  0  0  0  0  0  0  0  0  0  0
   24.3619    2.7258   32.3925 C   0  0  0  0  0  0  0  0  0  0  0  0
   23.1276    3.0227   31.8010 C   0  0  0  0  0  0  0  0  0  0  0  0
   24.5822    1.6654   33.2461 O   0  0  0  0  0  0  0  0  0  0  0  0
   23.6524    0.5847   33.2552 C   0  0  0  0  0  0  0  0  0  0  0  0
   20.9287   13.2398   30.6987 H   0  0  0  0  0  0  0  0  0  0  0  0
   21.0733   14.8404   29.8965 H   0  0  0  0  0  0  0  0  0  0  0  0
   20.6094   13.3939   28.9378 H   0  0  0  0  0  0  0  0  0  0  0  0
   22.0835   11.3194   28.6401 H   0  0  0  0  0  0  0  0  0  0  0  0
   23.8627   11.4090   28.4098 H   0  0  0  0  0  0  0  0  0  0  0  0
   23.2839    9.7513   30.1589 H   0  0  0  0  0  0  0  0  0  0  0  0
   24.1806   11.1347   30.8723 H   0  0  0  0  0  0  0  0  0  0  0  0
   19.1955    7.1129   32.8813 H   0  0  0  0  0  0  0  0  0  0  0  0
   18.1083   10.3263   33.9180 H   0  0  0  0  0  0  0  0  0  0  0  0
   17.4990    9.0038   33.1790 H   0  0  0  0  0  0  0  0  0  0  0  0
   22.3883    6.6429   31.0458 H   0  0  0  0  0  0  0  0  0  0  0  0
   21.0428    3.4724   30.3231 H   0  0  0  0  0  0  0  0  0  0  0  0
   21.7835    4.7412   29.2895 H   0  0  0  0  0  0  0  0  0  0  0  0
   24.5896    7.7449   28.9184 H   0  0  0  0  0  0  0  0  0  0  0  0
   25.3026    7.3868   30.5277 H   0  0  0  0  0  0  0  0  0  0  0  0
   25.7621    6.3965   29.1013 H   0  0  0  0  0  0  0  0  0  0  0  0
   26.1820    5.2623   31.0516 H   0  0  0  0  0  0  0  0  0  0  0  0
   26.4059    3.3397   32.5751 H   0  0  0  0  0  0  0  0  0  0  0  0
   22.2761    2.3883   31.9985 H   0  0  0  0  0  0  0  0  0  0  0  0
   23.9748   -0.1709   33.9868 H   0  0  0  0  0  0  0  0  0  0  0  0
   22.6562    0.9606   33.5313 H   0  0  0  0  0  0  0  0  0  0  0  0
   23.6085    0.1305   32.2543 H   0  0  0  0  0  0  0  0  0  0  0  0
  1  2  1  0  0  0  0
  2  3  2  0  0  0  0
  2  4  2  0  0  0  0
  2  5  1  0  0  0  0
  5  6  1  0  0  0  0
  6  7  1  0  0  0  0
  7  8  1  0  0  0  0
  8 14  2  0  0  0  0
  8  9  1  0  0  0  0
  9 10  2  0  0  0  0
 10 11  1  0  0  0  0
 10 17  1  0  0  0  0
 11 12  2  0  0  0  0
 12 13  1  0  0  0  0
 12 14  1  0  0  0  0
 14 15  1  0  0  0  0
 15 16  3  0  0  0  0
 17 18  1  0  0  0  0
 18 19  2  0  0  0  0
 18 20  1  0  0  0  0
 20 21  1  0  0  0  0
 21 28  2  0  0  0  0
 21 22  1  0  0  0  0
 22 23  1  0  0  0  0
 22 25  2  0  0  0  0
 23 24  1  0  0  0  0
 25 26  1  0  0  0  0
 26 27  2  0  0  0  0
 27 28  1  0  0  0  0
 27 29  1  0  0  0  0
 29 30  1  0  0  0  0
  1 31  1  0  0  0  0
  1 32  1  0  0  0  0
  1 33  1  0  0  0  0
  5 34  1  0  0  0  0
  5 35  1  0  0  0  0
  6 36  1  0  0  0  0
  6 37  1  0  0  0  0
 11 38  1  0  0  0  0
 13 39  1  0  0  0  0
 13 40  1  0  0  0  0
 17 41  1  0  0  0  0
 20 42  1  0  0  0  0
 20 43  1  0  0  0  0
 24 44  1  0  0  0  0
 24 45  1  0  0  0  0
 24 46  1  0  0  0  0
 25 47  1  0  0  0  0
 26 48  1  0  0  0  0
 28 49  1  0  0  0  0
 30 50  1  0  0  0  0
 30 51  1  0  0  0  0
 30 52  1  0  0  0  0
M  END
> <i_m_stars>
0

> <r_user_dG.exp>
-8.702592

$$$$
18660-1
  -OEChem-05192314073D
 Structure written by MMmdl.
 52 53  0     0  0  0  0  0  0999 V2000
   21.2242   13.7577   29.7743 C   0  0  0  0  0  0  0  0  0  0  0  0
   22.9858   13.4243   29.4250 S   0  0  0  0  0  0  0  0  0  0  0  0
   23.3325   14.1347   28.1853 O   0  0  0  0  0  0  0  0  0  0  0  0
   23.7515   13.6655   30.6540 O   0  0  0  0  0  0  0  0  0  0  0  0
   23.0345   11.6250   29.1007 C   0  0  0  0  0  0  0  0  0  0  0  0
   23.2416   10.8260   30.3896 C   0  0  0  0  0  0  0  0  0  0  0  0
   22.1374   11.0915   31.2625 O   0  0  0  0  0  0  0  0  0  0  0  0
   21.3481   10.0698   31.7543 C   0  0  0  0  0  0  0  0  0  0  0  0
   21.6928    8.8106   31.3991 N   0  0  0  0  0  0  0  0  0  0  0  0
   20.9169    7.7999   31.7865 C   0  0  0  0  0  0  0  0  0  0  0  0
   19.7851    7.9631   32.5715 C   0  0  0  0  0  0  0  0  0  0  0  0
   19.4339    9.2500   32.9461 C   0  0  0  0  0  0  0  0  0  0  0  0
   18.2722    9.3640   33.7009 N   0  0  0  0  0  0  0  0  0  0  0  0
   20.2235   10.3414   32.5432 C   0  0  0  0  0  0  0  0  0  0  0  0
   19.9110   11.7214   32.8945 C   0  0  0  0  0  0  0  0  0  0  0  0
   19.6714   12.8208   33.1675 N   0  0  0  0  0  0  0  0  0  0  0  0
   21.4154    6.6269   31.2767 N   0  0  0  0  0  0  0  0  0  0  0  0
   20.7987    5.4740   31.0443 C   0  0  0  0  0  0  0  0  0  0  0  0
   19.6158    5.2719   31.3028 O   0  0  0  0  0  0  0  0  0  0  0  0
   21.6200    4.4088   30.3253 C   0  0  0  0  0  0  0  0  0  0  0  0
   22.9824    4.1291   30.9583 C   0  0  0  0  0  0  0  0  0  0  0  0
   24.0821    4.9595   30.6887 C   0  0  0  0  0  0  0  0  0  0  0  0
   23.8687    6.0491   29.8635 O   0  0  0  0  0  0  0  0  0  0  0  0
   24.9419    6.9455   29.5869 C   0  0  0  0  0  0  0  0  0  0  0  0
   25.3204    4.6479   31.2676 C   0  0  0  0  0  0  0  0  0  0  0  0
   25.4495    3.5512   32.1202 C   0  0  0  0  0  0  0  0  0  0  0  0
   24.3619    2.7258   32.3925 C   0  0  0  0  0  0  0  0  0  0  0  0
   23.1276    3.0227   31.8010 C   0  0  0  0  0  0  0  0  0  0  0  0
   24.5822    1.6654   33.2461 O   0  0  0  0  0  0  0  0  0  0  0  0
   23.6524    0.5847   33.2552 C   0  0  0  0  0  0  0  0  0  0  0  0
   20.9287   13.2398   30.6987 H   0  0  0  0  0  0  0  0  0  0  0  0
   21.0733   14.8404   29.8965 H   0  0  0  0  0  0  0  0  0  0  0  0
   20.6094   13.3939   28.9378 H   0  0  0  0  0  0  0  0  0  0  0  0
   22.0835   11.3194   28.6401 H   0  0  0  0  0  0  0  0  0  0  0  0
   23.8627   11.4090   28.4098 H   0  0  0  0  0  0  0  0  0  0  0  0
   23.2839    9.7513   30.1589 H   0  0  0  0  0  0  0  0  0  0  0  0
   24.1806   11.1347   30.8723 H   0  0  0  0  0  0  0  0  0  0  0  0
   19.1955    7.1129   32.8813 H   0  0  0  0  0  0  0  0  0  0  0  0
   18.1083   10.3263   33.9180 H   0  0  0  0  0  0  0  0  0  0  0  0
   17.4990    9.0038   33.1790 H   0  0  0  0  0  0  0  0  0  0  0  0
   19.3845    4.3842   31.0560 H   0  0  0  0  0  0  0  0  0  0  0  0
   21.0428    3.4724   30.3231 H   0  0  0  0  0  0  0  0  0  0  0  0
   21.7835    4.7412   29.2895 H   0  0  0  0  0  0  0  0  0  0  0  0
   24.5896    7.7449   28.9184 H   0  0  0  0  0  0  0  0  0  0  0  0
   25.3026    7.3868   30.5277 H   0  0  0  0  0  0  0  0  0  0  0  0
   25.7621    6.3965   29.1013 H   0  0  0  0  0  0  0  0  0  0  0  0
   26.1820    5.2623   31.0516 H   0  0  0  0  0  0  0  0  0  0  0  0
   26.4059    3.3397   32.5751 H   0  0  0  0  0  0  0  0  0  0  0  0
   22.2761    2.3883   31.9985 H   0  0  0  0  0  0  0  0  0  0  0  0
   23.9748   -0.1709   33.9868 H   0  0  0  0  0  0  0  0  0  0  0  0
   22.6562    0.9606   33.5313 H   0  0  0  0  0  0  0  0  0  0  0  0
   23.6085    0.1305   32.2543 H   0  0  0  0  0  0  0  0  0  0  0  0
  1  2  1  0  0  0  0
  2  3  2  0  0  0  0
  2  4  2  0  0  0  0
  2  5  1  0  0  0  0
  5  6  1  0  0  0  0
  6  7  1  0  0  0  0
  7  8  1  0  0  0  0
  8 14  2  0  0  0  0
  8  9  1  0  0  0  0
  9 10  2  0  0  0  0
 10 11  1  0  0  0  0
 10 17  1  0  0  0  0
 11 12  2  0  0  0  0
 12 13  1  0  0  0  0
 12 14  1  0  0  0  0
 14 15  1  0  0  0  0
 15 16  3  0  0  0  0
 17 18  2  0  0  0  0
 18 19  1  0  0  0  0
 18 20  1  0  0  0  0
 20 21  1  0  0  0  0
 21 28  2  0  0  0  0
 21 22  1  0  0  0  0
 22 23  1  0  0  0  0
 22 25  2  0  0  0  0
 23 24  1  0  0  0  0
 25 26  1  0  0  0  0
 26 27  2  0  0  0  0
 27 28  1  0  0  0  0
 27 29  1  0  0  0  0
 29 30  1  0  0  0  0
  1 31  1  0  0  0  0
  1 32  1  0  0  0  0
  1 33  1  0  0  0  0
  5 34  1  0  0  0  0
  5 35  1  0  0  0  0
  6 36  1  0  0  0  0
  6 37  1  0  0  0  0
 11 38  1  0  0  0  0
 13 39  1  0  0  0  0
 13 40  1  0  0  0  0
 19 41  1  0  0  0  0
 20 42  1  0  0  0  0
 20 43  1  0  0  0  0
 24 44  1  0  0  0  0
 24 45  1  0  0  0  0
 24 46  1  0  0  0  0
 25 47  1  0  0  0  0
 26 48  1  0  0  0  0
 28 49  1  0  0  0  0
 30 50  1  0  0  0  0
 30 51  1  0  0  0  0
 30 52  1  0  0  0  0
M  END
> <i_m_stars>
0

> <r_user_dG.exp>
-8.702592

$$$$
18660-1
  -OEChem-05192314073D
 Structure written by MMmdl.
 52 53  0     0  0  0  0  0  0999 V2000
   21.2242   13.7577   29.7743 C   0  0  0  0  0  0  0  0  0  0  0  0
   22.9858   13.4243   29.4250 S   0  0  0  0  0  0  0  0  0  0  0  0
   23.3325   14.1347   28.1853 O   0  0  0  0  0  0  0  0  0  0  0  0
   23.7515   13.6655   30.6540 O   0  0  0  0  0  0  0  0  0  0  0  0
   23.0345   11.6250   29.1007 C   0  0  0  0  0  0  0  0  0  0  0  0
   23.2416   10.8260   30.3896 C   0  0  0  0  0  0  0  0  0  0  0  0
   22.1374   11.0915   31.2625 O   0  0  0  0  0  0  0  0  0  0  0  0
   21.3481   10.0698   31.7543 C   0  0  0  0  0  0  0  0  0  0  0  0
   21.6928    8.8106   31.3991 N   0  0  0  0  0  0  0  0  0  0  0  0
   20.9169    7.7999   31.7865 C   0  0  0  0  0  0  0  0  0  0  0  0
   19.7851    7.9631   32.5715 C   0  0  0  0  0  0  0  0  0  0  0  0
   19.4339    9.2500   32.9461 C   0  0  0  0  0  0  0  0  0  0  0  0
   18.2722    9.3640   33.7009 N   0  0  0  0  0  0  0  0  0  0  0  0
   20.2235   10.3414   32.5432 C   0  0  0  0  0  0  0  0  0  0  0  0
   19.9110   11.7214   32.8945 C   0  0  0  0  0  0  0  0  0  0  0  0
   19.6714   12.8208   33.1675 N   0  0  0  0  0  0  0  0  0  0  0  0
   21.4154    6.6269   31.2767 N   0  0  0  0  0  0  0  0  0  0  0  0
   20.7987    5.4740   31.0443 C   0  0  0  0  0  0  0  0  0  0  0  0
   19.6158    5.2719   31.3028 O   0  0  0  0  0  0  0  0  0  0  0  0
   21.6200    4.4088   30.3253 C   0  0  0  0  0  0  0  0  0  0  0  0
   22.9824    4.1291   30.9583 C   0  0  0  0  0  0  0  0  0  0  0  0
   24.0821    4.9595   30.6887 C   0  0  0  0  0  0  0  0  0  0  0  0
   23.8687    6.0491   29.8635 O   0  0  0  0  0  0  0  0  0  0  0  0
   24.9419    6.9455   29.5869 C   0  0  0  0  0  0  0  0  0  0  0  0
   25.3204    4.6479   31.2676 C   0  0  0  0  0  0  0  0  0  0  0  0
   25.4495    3.5512   32.1202 C   0  0  0  0  0  0  0  0  0  0  0  0
   24.3619    2.7258   32.3925 C   0  0  0  0  0  0  0  0  0  0  0  0
   23.1276    3.0227   31.8010 C   0  0  0  0  0  0  0  0  0  0  0  0
   24.5822    1.6654   33.2461 O   0  0  0  0  0  0  0  0  0  0  0  0
   23.6524    0.5847   33.2552 C   0  0  0  0  0  0  0  0  0  0  0  0
   20.9287   13.2398   30.6987 H   0  0  0  0  0  0  0  0  0  0  0  0
   21.0733   14.8404   29.8965 H   0  0  0  0  0  0  0  0  0  0  0  0
   20.6094   13.3939   28.9378 H   0  0  0  0  0  0  0  0  0  0  0  0
   22.0835   11.3194   28.6401 H   0  0  0  0  0  0  0  0  0  0  0  0
   23.8627   11.4090   28.4098 H   0  0  0  0  0  0  0  0  0  0  0  0
   23.2839    9.7513   30.1589 H   0  0  0  0  0  0  0  0  0  0  0  0
   24.1806   11.1347   30.8723 H   0  0  0  0  0  0  0  0  0  0  0  0
   22.5151    8.6419   30.8556 H   0  0  0  0  0  0  0  0  0  0  0  0
   19.1955    7.1129   32.8813 H   0  0  0  0  0  0  0  0  0  0  0  0
   18.0628   10.3159   33.9247 H   0  0  0  0  0  0  0  0  0  0  0  0
   22.3883    6.6429   31.0458 H   0  0  0  0  0  0  0  0  0  0  0  0
   21.0428    3.4724   30.3231 H   0  0  0  0  0  0  0  0  0  0  0  0
   21.7835    4.7412   29.2895 H   0  0  0  0  0  0  0  0  0  0  0  0
   24.5896    7.7449   28.9184 H   0  0  0  0  0  0  0  0  0  0  0  0
   25.3026    7.3868   30.5277 H   0  0  0  0  0  0  0  0  0  0  0  0
   25.7621    6.3965   29.1013 H   0  0  0  0  0  0  0  0  0  0  0  0
   26.1820    5.2623   31.0516 H   0  0  0  0  0  0  0  0  0  0  0  0
   26.4059    3.3397   32.5751 H   0  0  0  0  0  0  0  0  0  0  0  0
   22.2761    2.3883   31.9985 H   0  0  0  0  0  0  0  0  0  0  0  0
   23.9748   -0.1709   33.9868 H   0  0  0  0  0  0  0  0  0  0  0  0
   22.6562    0.9606   33.5313 H   0  0  0  0  0  0  0  0  0  0  0  0
   23.6085    0.1305   32.2543 H   0  0  0  0  0  0  0  0  0  0  0  0
  1  2  1  0  0  0  0
  2  3  2  0  0  0  0
  2  4  2  0  0  0  0
  2  5  1  0  0  0  0
  5  6  1  0  0  0  0
  6  7  1  0  0  0  0
  7  8  1  0  0  0  0
  8 14  2  0  0  0  0
  8  9  1  0  0  0  0
  9 10  1  0  0  0  0
 10 11  2  0  0  0  0
 10 17  1  0  0  0  0
 11 12  1  0  0  0  0
 12 13  2  0  0  0  0
 12 14  1  0  0  0  0
 14 15  1  0  0  0  0
 15 16  3  0  0  0  0
 17 18  1  0  0  0  0
 18 19  2  0  0  0  0
 18 20  1  0  0  0  0
 20 21  1  0  0  0  0
 21 28  2  0  0  0  0
 21 22  1  0  0  0  0
 22 23  1  0  0  0  0
 22 25  2  0  0  0  0
 23 24  1  0  0  0  0
 25 26  1  0  0  0  0
 26 27  2  0  0  0  0
 27 28  1  0  0  0  0
 27 29  1  0  0  0  0
 29 30  1  0  0  0  0
  1 31  1  0  0  0  0
  1 32  1  0  0  0  0
  1 33  1  0  0  0  0
  5 34  1  0  0  0  0
  5 35  1  0  0  0  0
  6 36  1  0  0  0  0
  6 37  1  0  0  0  0
  9 38  1  0  0  0  0
 11 39  1  0  0  0  0
 13 40  1  0  0  0  0
 17 41  1  0  0  0  0
 20 42  1  0  0  0  0
 20 43  1  0  0  0  0
 24 44  1  0  0  0  0
 24 45  1  0  0  0  0
 24 46  1  0  0  0  0
 25 47  1  0  0  0  0
 26 48  1  0  0  0  0
 28 49  1  0  0  0  0
 30 50  1  0  0  0  0
 30 51  1  0  0  0  0
 30 52  1  0  0  0  0
M  END
> <i_m_stars>
0

> <r_user_dG.exp>
-8.702592

$$$$
18660-1
  -OEChem-05192314073D
 Structure written by MMmdl.
 52 53  0     0  0  0  0  0  0999 V2000
   21.2242   13.7577   29.7743 C   0  0  0  0  0  0  0  0  0  0  0  0
   22.9858   13.4243   29.4250 S   0  0  0  0  0  0  0  0  0  0  0  0
   23.3325   14.1347   28.1853 O   0  0  0  0  0  0  0  0  0  0  0  0
   23.7515   13.6655   30.6540 O   0  0  0  0  0  0  0  0  0  0  0  0
   23.0345   11.6250   29.1007 C   0  0  0  0  0  0  0  0  0  0  0  0
   23.2416   10.8260   30.3896 C   0  0  0  0  0  0  0  0  0  0  0  0
   22.1374   11.0915   31.2625 O   0  0  0  0  0  0  0  0  0  0  0  0
   21.3481   10.0698   31.7543 C   0  0  0  0  0  0  0  0  0  0  0  0
   21.6928    8.8106   31.3991 N   0  0  0  0  0  0  0  0  0  0  0  0
   20.9169    7.7999   31.7865 C   0  0  0  0  0  0  0  0  0  0  0  0
   19.7851    7.9631   32.5715 C   0  0  0  0  0  0  0  0  0  0  0  0
   19.4339    9.2500   32.9461 C   0  0  0  0  0  0  0  0  0  0  0  0
   18.2722    9.3640   33.7009 N   0  0  0  0  0  0  0  0  0  0  0  0
   20.2235   10.3414   32.5432 C   0  0  0  0  0  0  0  0  0  0  0  0
   19.9110   11.7214   32.8945 C   0  0  0  0  0  0  0  0  0  0  0  0
   19.6714   12.8208   33.1675 N   0  0  0  0  0  0  0  0  0  0  0  0
   21.4154    6.6269   31.2767 N   0  0  0  0  0  0  0  0  0  0  0  0
   20.7987    5.4740   31.0443 C   0  0  0  0  0  0  0  0  0  0  0  0
   19.6158    5.2719   31.3028 O   0  0  0  0  0  0  0  0  0  0  0  0
   21.6200    4.4088   30.3253 C   0  0  0  0  0  0  0  0  0  0  0  0
   22.9824    4.1291   30.9583 C   0  0  0  0  0  0  0  0  0  0  0  0
   24.0821    4.9595   30.6887 C   0  0  0  0  0  0  0  0  0  0  0  0
   23.8687    6.0491   29.8635 O   0  0  0  0  0  0  0  0  0  0  0  0
   24.9419    6.9455   29.5869 C   0  0  0  0  0  0  0  0  0  0  0  0
   25.3204    4.6479   31.2676 C   0  0  0  0  0  0  0  0  0  0  0  0
   25.4495    3.5512   32.1202 C   0  0  0  0  0  0  0  0  0  0  0  0
   24.3619    2.7258   32.3925 C   0  0  0  0  0  0  0  0  0  0  0  0
   23.1276    3.0227   31.8010 C   0  0  0  0  0  0  0  0  0  0  0  0
   24.5822    1.6654   33.2461 O   0  0  0  0  0  0  0  0  0  0  0  0
   23.6524    0.5847   33.2552 C   0  0  0  0  0  0  0  0  0  0  0  0
   20.9287   13.2398   30.6987 H   0  0  0  0  0  0  0  0  0  0  0  0
   21.0733   14.8404   29.8965 H   0  0  0  0  0  0  0  0  0  0  0  0
   20.6094   13.3939   28.9378 H   0  0  0  0  0  0  0  0  0  0  0  0
   22.0835   11.3194   28.6401 H   0  0  0  0  0  0  0  0  0  0  0  0
   23.8627   11.4090   28.4098 H   0  0  0  0  0  0  0  0  0  0  0  0
   23.2839    9.7513   30.1589 H   0  0  0  0  0  0  0  0  0  0  0  0
   24.1806   11.1347   30.8723 H   0  0  0  0  0  0  0  0  0  0  0  0
   22.5151    8.6419   30.8556 H   0  0  0  0  0  0  0  0  0  0  0  0
   19.1955    7.1129   32.8813 H   0  0  0  0  0  0  0  0  0  0  0  0
   18.1083   10.3263   33.9180 H   0  0  0  0  0  0  0  0  0  0  0  0
   17.4990    9.0038   33.1790 H   0  0  0  0  0  0  0  0  0  0  0  0
   21.0428    3.4724   30.3231 H   0  0  0  0  0  0  0  0  0  0  0  0
   21.7835    4.7412   29.2895 H   0  0  0  0  0  0  0  0  0  0  0  0
   24.5896    7.7449   28.9184 H   0  0  0  0  0  0  0  0  0  0  0  0
   25.3026    7.3868   30.5277 H   0  0  0  0  0  0  0  0  0  0  0  0
   25.7621    6.3965   29.1013 H   0  0  0  0  0  0  0  0  0  0  0  0
   26.1820    5.2623   31.0516 H   0  0  0  0  0  0  0  0  0  0  0  0
   26.4059    3.3397   32.5751 H   0  0  0  0  0  0  0  0  0  0  0  0
   22.2761    2.3883   31.9985 H   0  0  0  0  0  0  0  0  0  0  0  0
   23.9748   -0.1709   33.9868 H   0  0  0  0  0  0  0  0  0  0  0  0
   22.6562    0.9606   33.5313 H   0  0  0  0  0  0  0  0  0  0  0  0
   23.6085    0.1305   32.2543 H   0  0  0  0  0  0  0  0  0  0  0  0
  1  2  1  0  0  0  0
  2  3  2  0  0  0  0
  2  4  2  0  0  0  0
  2  5  1  0  0  0  0
  5  6  1  0  0  0  0
  6  7  1  0  0  0  0
  7  8  1  0  0  0  0
  8 14  2  0  0  0  0
  8  9  1  0  0  0  0
  9 10  1  0  0  0  0
 10 11  1  0  0  0  0
 10 17  2  0  0  0  0
 11 12  2  0  0  0  0
 12 13  1  0  0  0  0
 12 14  1  0  0  0  0
 14 15  1  0  0  0  0
 15 16  3  0  0  0  0
 17 18  1  0  0  0  0
 18 19  2  0  0  0  0
 18 20  1  0  0  0  0
 20 21  1  0  0  0  0
 21 28  2  0  0  0  0
 21 22  1  0  0  0  0
 22 23  1  0  0  0  0
 22 25  2  0  0  0  0
 23 24  1  0  0  0  0
 25 26  1  0  0  0  0
 26 27  2  0  0  0  0
 27 28  1  0  0  0  0
 27 29  1  0  0  0  0
 29 30  1  0  0  0  0
  1 31  1  0  0  0  0
  1 32  1  0  0  0  0
  1 33  1  0  0  0  0
  5 34  1  0  0  0  0
  5 35  1  0  0  0  0
  6 36  1  0  0  0  0
  6 37  1  0  0  0  0
  9 38  1  0  0  0  0
 11 39  1  0  0  0  0
 13 40  1  0  0  0  0
 13 41  1  0  0  0  0
 20 42  1  0  0  0  0
 20 43  1  0  0  0  0
 24 44  1  0  0  0  0
 24 45  1  0  0  0  0
 24 46  1  0  0  0  0
 25 47  1  0  0  0  0
 26 48  1  0  0  0  0
 28 49  1  0  0  0  0
 30 50  1  0  0  0  0
 30 51  1  0  0  0  0
 30 52  1  0  0  0  0
M  END
> <i_m_stars>
0

> <r_user_dG.exp>
-8.702592

$$$$
18660-1
  -OEChem-05192314073D
 Structure written by MMmdl.
 52 53  0     0  0  0  0  0  0999 V2000
   21.2242   13.7577   29.7743 C   0  0  0  0  0  0  0  0  0  0  0  0
   22.9858   13.4243   29.4250 S   0  0  0  0  0  0  0  0  0  0  0  0
   23.3325   14.1347   28.1853 O   0  0  0  0  0  0  0  0  0  0  0  0
   23.7515   13.6655   30.6540 O   0  0  0  0  0  0  0  0  0  0  0  0
   23.0345   11.6250   29.1007 C   0  0  0  0  0  0  0  0  0  0  0  0
   23.2416   10.8260   30.3896 C   0  0  0  0  0  0  0  0  0  0  0  0
   22.1374   11.0915   31.2625 O   0  0  0  0  0  0  0  0  0  0  0  0
   21.3481   10.0698   31.7543 C   0  0  0  0  0  0  0  0  0  0  0  0
   21.6928    8.8106   31.3991 N   0  0  0  0  0  0  0  0  0  0  0  0
   20.9169    7.7999   31.7865 C   0  0  0  0  0  0  0  0  0  0  0  0
   19.7851    7.9631   32.5715 C   0  0  0  0  0  0  0  0  0  0  0  0
   19.4339    9.2500   32.9461 C   0  0  0  0  0  0  0  0  0  0  0  0
   18.2722    9.3640   33.7009 N   0  0  0  0  0  0  0  0  0  0  0  0
   20.2235   10.3414   32.5432 C   0  0  0  0  0  0  0  0  0  0  0  0
   19.9110   11.7214   32.8945 C   0  0  0  0  0  0  0  0  0  0  0  0
   19.6714   12.8208   33.1675 N   0  0  0  0  0  0  0  0  0  0  0  0
   21.4154    6.6269   31.2767 N   0  0  0  0  0  0  0  0  0  0  0  0
   20.7987    5.4740   31.0443 C   0  0  0  0  0  0  0  0  0  0  0  0
   19.6158    5.2719   31.3028 O   0  0  0  0  0  0  0  0  0  0  0  0
   21.6200    4.4088   30.3253 C   0  0  0  0  0  0  0  0  0  0  0  0
   22.9824    4.1291   30.9583 C   0  0  0  0  0  0  0  0  0  0  0  0
   24.0821    4.9595   30.6887 C   0  0  0  0  0  0  0  0  0  0  0  0
   23.8687    6.0491   29.8635 O   0  0  0  0  0  0  0  0  0  0  0  0
   24.9419    6.9455   29.5869 C   0  0  0  0  0  0  0  0  0  0  0  0
   25.3204    4.6479   31.2676 C   0  0  0  0  0  0  0  0  0  0  0  0
   25.4495    3.5512   32.1202 C   0  0  0  0  0  0  0  0  0  0  0  0
   24.3619    2.7258   32.3925 C   0  0  0  0  0  0  0  0  0  0  0  0
   23.1276    3.0227   31.8010 C   0  0  0  0  0  0  0  0  0  0  0  0
   24.5822    1.6654   33.2461 O   0  0  0  0  0  0  0  0  0  0  0  0
   23.6524    0.5847   33.2552 C   0  0  0  0  0  0  0  0  0  0  0  0
   20.9287   13.2398   30.6987 H   0  0  0  0  0  0  0  0  0  0  0  0
   21.0733   14.8404   29.8965 H   0  0  0  0  0  0  0  0  0  0  0  0
   20.6094   13.3939   28.9378 H   0  0  0  0  0  0  0  0  0  0  0  0
   22.0835   11.3194   28.6401 H   0  0  0  0  0  0  0  0  0  0  0  0
   23.8627   11.4090   28.4098 H   0  0  0  0  0  0  0  0  0  0  0  0
   23.2839    9.7513   30.1589 H   0  0  0  0  0  0  0  0  0  0  0  0
   24.1806   11.1347   30.8723 H   0  0  0  0  0  0  0  0  0  0  0  0
   22.5151    8.6419   30.8556 H   0  0  0  0  0  0  0  0  0  0  0  0
   19.1955    7.1129   32.8813 H   0  0  0  0  0  0  0  0  0  0  0  0
   18.0628   10.3159   33.9247 H   0  0  0  0  0  0  0  0  0  0  0  0
   19.3845    4.3842   31.0560 H   0  0  0  0  0  0  0  0  0  0  0  0
   21.0428    3.4724   30.3231 H   0  0  0  0  0  0  0  0  0  0  0  0
   21.7835    4.7412   29.2895 H   0  0  0  0  0  0  0  0  0  0  0  0
   24.5896    7.7449   28.9184 H   0  0  0  0  0  0  0  0  0  0  0  0
   25.3026    7.3868   30.5277 H   0  0  0  0  0  0  0  0  0  0  0  0
   25.7621    6.3965   29.1013 H   0  0  0  0  0  0  0  0  0  0  0  0
   26.1820    5.2623   31.0516 H   0  0  0  0  0  0  0  0  0  0  0  0
   26.4059    3.3397   32.5751 H   0  0  0  0  0  0  0  0  0  0  0  0
   22.2761    2.3883   31.9985 H   0  0  0  0  0  0  0  0  0  0  0  0
   23.9748   -0.1709   33.9868 H   0  0  0  0  0  0  0  0  0  0  0  0
   22.6562    0.9606   33.5313 H   0  0  0  0  0  0  0  0  0  0  0  0
   23.6085    0.1305   32.2543 H   0  0  0  0  0  0  0  0  0  0  0  0
  1  2  1  0  0  0  0
  2  3  2  0  0  0  0
  2  4  2  0  0  0  0
  2  5  1  0  0  0  0
  5  6  1  0  0  0  0
  6  7  1  0  0  0  0
  7  8  1  0  0  0  0
  8 14  2  0  0  0  0
  8  9  1  0  0  0  0
  9 10  1  0  0  0  0
 10 11  2  0  0  0  0
 10 17  1  0  0  0  0
 11 12  1  0  0  0  0
 12 13  2  0  0  0  0
 12 14  1  0  0  0  0
 14 15  1  0  0  0  0
 15 16  3  0  0  0  0
 17 18  2  0  0  0  0
 18 19  1  0  0  0  0
 18 20  1  0  0  0  0
 20 21  1  0  0  0  0
 21 28  2  0  0  0  0
 21 22  1  0  0  0  0
 22 23  1  0  0  0  0
 22 25  2  0  0  0  0
 23 24  1  0  0  0  0
 25 26  1  0  0  0  0
 26 27  2  0  0  0  0
 27 28  1  0  0  0  0
 27 29  1  0  0  0  0
 29 30  1  0  0  0  0
  1 31  1  0  0  0  0
  1 32  1  0  0  0  0
  1 33  1  0  0  0  0
  5 34  1  0  0  0  0
  5 35  1  0  0  0  0
  6 36  1  0  0  0  0
  6 37  1  0  0  0  0
  9 38  1  0  0  0  0
 11 39  1  0  0  0  0
 13 40  1  0  0  0  0
 19 41  1  0  0  0  0
 20 42  1  0  0  0  0
 20 43  1  0  0  0  0
 24 44  1  0  0  0  0
 24 45  1  0  0  0  0
 24 46  1  0  0  0  0
 25 47  1  0  0  0  0
 26 48  1  0  0  0  0
 28 49  1  0  0  0  0
 30 50  1  0  0  0  0
 30 51  1  0  0  0  0
 30 52  1  0  0  0  0
M  END
> <i_m_stars>
0

> <r_user_dG.exp>
-8.702592

$$$$
18660-1
  -OEChem-05192314073D
 Structure written by MMmdl.
 52 53  0     1  0  0  0  0  0999 V2000
   21.2242   13.7577   29.7743 C   0  0  0  0  0  0  0  0  0  0  0  0
   22.9858   13.4243   29.4250 S   0  0  0  0  0  0  0  0  0  0  0  0
   23.3325   14.1347   28.1853 O   0  0  0  0  0  0  0  0  0  0  0  0
   23.7515   13.6655   30.6540 O   0  0  0  0  0  0  0  0  0  0  0  0
   23.0345   11.6250   29.1007 C   0  0  0  0  0  0  0  0  0  0  0  0
   23.2416   10.8260   30.3896 C   0  0  0  0  0  0  0  0  0  0  0  0
   22.1374   11.0915   31.2625 O   0  0  0  0  0  0  0  0  0  0  0  0
   21.3481   10.0698   31.7543 C   0  0  0  0  0  0  0  0  0  0  0  0
   21.6928    8.8106   31.3991 N   0  0  0  0  0  0  0  0  0  0  0  0
   20.9169    7.7999   31.7865 C   0  0  0  0  0  0  0  0  0  0  0  0
   19.7851    7.9631   32.5715 C   0  0  0  0  0  0  0  0  0  0  0  0
   19.4339    9.2500   32.9461 C   0  0  0  0  0  0  0  0  0  0  0  0
   18.2722    9.3640   33.7009 N   0  0  0  0  0  0  0  0  0  0  0  0
   20.2235   10.3414   32.5432 C   0  0  3  0  0  0  0  0  0  0  0  0
   19.9110   11.7214   32.8945 C   0  0  0  0  0  0  0  0  0  0  0  0
   19.6714   12.8208   33.1675 N   0  0  0  0  0  0  0  0  0  0  0  0
   21.4154    6.6269   31.2767 N   0  0  0  0  0  0  0  0  0  0  0  0
   20.7987    5.4740   31.0443 C   0  0  0  0  0  0  0  0  0  0  0  0
   19.6158    5.2719   31.3028 O   0  0  0  0  0  0  0  0  0  0  0  0
   21.6200    4.4088   30.3253 C   0  0  0  0  0  0  0  0  0  0  0  0
   22.9824    4.1291   30.9583 C   0  0  0  0  0  0  0  0  0  0  0  0
   24.0821    4.9595   30.6887 C   0  0  0  0  0  0  0  0  0  0  0  0
   23.8687    6.0491   29.8635 O   0  0  0  0  0  0  0  0  0  0  0  0
   24.9419    6.9455   29.5869 C   0  0  0  0  0  0  0  0  0  0  0  0
   25.3204    4.6479   31.2676 C   0  0  0  0  0  0  0  0  0  0  0  0
   25.4495    3.5512   32.1202 C   0  0  0  0  0  0  0  0  0  0  0  0
   24.3619    2.7258   32.3925 C   0  0  0  0  0  0  0  0  0  0  0  0
   23.1276    3.0227   31.8010 C   0  0  0  0  0  0  0  0  0  0  0  0
   24.5822    1.6654   33.2461 O   0  0  0  0  0  0  0  0  0  0  0  0
   23.6524    0.5847   33.2552 C   0  0  0  0  0  0  0  0  0  0  0  0
   20.9287   13.2398   30.6987 H   0  0  0  0  0  0  0  0  0  0  0  0
   21.0733   14.8404   29.8965 H   0  0  0  0  0  0  0  0  0  0  0  0
   20.6094   13.3939   28.9378 H   0  0  0  0  0  0  0  0  0  0  0  0
   22.0835   11.3194   28.6401 H   0  0  0  0  0  0  0  0  0  0  0  0
   23.8627   11.4090   28.4098 H   0  0  0  0  0  0  0  0  0  0  0  0
   23.2839    9.7513   30.1589 H   0  0  0  0  0  0  0  0  0  0  0  0
   24.1806   11.1347   30.8723 H   0  0  0  0  0  0  0  0  0  0  0  0
   18.9361    7.5416   32.0132 H   0  0  0  0  0  0  0  0  0  0  0  0
   19.9406    7.3847   33.4941 H   0  0  0  0  0  0  0  0  0  0  0  0
   18.0628   10.3159   33.9247 H   0  0  0  0  0  0  0  0  0  0  0  0
   20.8327   10.2428   33.4538 H   0  0  0  0  0  0  0  0  0  0  0  0
   21.0428    3.4724   30.3231 H   0  0  0  0  0  0  0  0  0  0  0  0
   21.7835    4.7412   29.2895 H   0  0  0  0  0  0  0  0  0  0  0  0
   24.5896    7.7449   28.9184 H   0  0  0  0  0  0  0  0  0  0  0  0
   25.3026    7.3868   30.5277 H   0  0  0  0  0  0  0  0  0  0  0  0
   25.7621    6.3965   29.1013 H   0  0  0  0  0  0  0  0  0  0  0  0
   26.1820    5.2623   31.0516 H   0  0  0  0  0  0  0  0  0  0  0  0
   26.4059    3.3397   32.5751 H   0  0  0  0  0  0  0  0  0  0  0  0
   22.2761    2.3883   31.9985 H   0  0  0  0  0  0  0  0  0  0  0  0
   23.9748   -0.1709   33.9868 H   0  0  0  0  0  0  0  0  0  0  0  0
   22.6562    0.9606   33.5313 H   0  0  0  0  0  0  0  0  0  0  0  0
   23.6085    0.1305   32.2543 H   0  0  0  0  0  0  0  0  0  0  0  0
  1  2  1  0  0  0  0
  2  3  2  0  0  0  0
  2  4  2  0  0  0  0
  2  5  1  0  0  0  0
  5  6  1  0  0  0  0
  6  7  1  0  0  0  0
  7  8  1  0  0  0  0
  8 14  1  0  0  0  0
  8  9  2  0  0  0  0
  9 10  1  0  0  0  0
 10 11  1  0  0  0  0
 10 17  2  0  0  0  0
 11 12  1  0  0  0  0
 12 13  2  0  0  0  0
 12 14  1  0  0  0  0
 14 15  1  0  0  0  0
 15 16  3  0  0  0  0
 17 18  1  0  0  0  0
 18 19  2  0  0  0  0
 18 20  1  0  0  0  0
 20 21  1  0  0  0  0
 21 28  2  0  0  0  0
 21 22  1  0  0  0  0
 22 23  1  0  0  0  0
 22 25  2  0  0  0  0
 23 24  1  0  0  0  0
 25 26  1  0  0  0  0
 26 27  2  0  0  0  0
 27 28  1  0  0  0  0
 27 29  1  0  0  0  0
 29 30  1  0  0  0  0
  1 31  1  0  0  0  0
  1 32  1  0  0  0  0
  1 33  1  0  0  0  0
  5 34  1  0  0  0  0
  5 35  1  0  0  0  0
  6 36  1  0  0  0  0
  6 37  1  0  0  0  0
 11 38  1  0  0  0  0
 11 39  1  0  0  0  0
 13 40  1  0  0  0  0
 14 41  1  0  0  0  0
 20 42  1  0  0  0  0
 20 43  1  0  0  0  0
 24 44  1  0  0  0  0
 24 45  1  0  0  0  0
 24 46  1  0  0  0  0
 25 47  1  0  0  0  0
 26 48  1  0  0  0  0
 28 49  1  0  0  0  0
 30 50  1  0  0  0  0
 30 51  1  0  0  0  0
 30 52  1  0  0  0  0
M  END
> <i_m_stars>
0

> <r_user_dG.exp>
-8.702592

$$$$
18660-1
  -OEChem-05192314073D
 Structure written by MMmdl.
 52 53  0     1  0  0  0  0  0999 V2000
   21.2242   13.7577   29.7743 C   0  0  0  0  0  0  0  0  0  0  0  0
   22.9858   13.4243   29.4250 S   0  0  0  0  0  0  0  0  0  0  0  0
   23.3325   14.1347   28.1853 O   0  0  0  0  0  0  0  0  0  0  0  0
   23.7515   13.6655   30.6540 O   0  0  0  0  0  0  0  0  0  0  0  0
   23.0345   11.6250   29.1007 C   0  0  0  0  0  0  0  0  0  0  0  0
   23.2416   10.8260   30.3896 C   0  0  0  0  0  0  0  0  0  0  0  0
   22.1374   11.0915   31.2625 O   0  0  0  0  0  0  0  0  0  0  0  0
   21.3481   10.0698   31.7543 C   0  0  0  0  0  0  0  0  0  0  0  0
   21.6928    8.8106   31.3991 N   0  0  0  0  0  0  0  0  0  0  0  0
   20.9169    7.7999   31.7865 C   0  0  0  0  0  0  0  0  0  0  0  0
   19.7851    7.9631   32.5715 C   0  0  0  0  0  0  0  0  0  0  0  0
   19.4339    9.2500   32.9461 C   0  0  0  0  0  0  0  0  0  0  0  0
   18.2722    9.3640   33.7009 N   0  0  0  0  0  0  0  0  0  0  0  0
   20.2235   10.3414   32.5432 C   0  0  3  0  0  0  0  0  0  0  0  0
   19.9110   11.7214   32.8945 C   0  0  0  0  0  0  0  0  0  0  0  0
   19.6714   12.8208   33.1675 N   0  0  0  0  0  0  0  0  0  0  0  0
   21.4154    6.6269   31.2767 N   0  0  0  0  0  0  0  0  0  0  0  0
   20.7987    5.4740   31.0443 C   0  0  0  0  0  0  0  0  0  0  0  0
   19.6158    5.2719   31.3028 O   0  0  0  0  0  0  0  0  0  0  0  0
   21.6200    4.4088   30.3253 C   0  0  0  0  0  0  0  0  0  0  0  0
   22.9824    4.1291   30.9583 C   0  0  0  0  0  0  0  0  0  0  0  0
   24.0821    4.9595   30.6887 C   0  0  0  0  0  0  0  0  0  0  0  0
   23.8687    6.0491   29.8635 O   0  0  0  0  0  0  0  0  0  0  0  0
   24.9419    6.9455   29.5869 C   0  0  0  0  0  0  0  0  0  0  0  0
   25.3204    4.6479   31.2676 C   0  0  0  0  0  0  0  0  0  0  0  0
   25.4495    3.5512   32.1202 C   0  0  0  0  0  0  0  0  0  0  0  0
   24.3619    2.7258   32.3925 C   0  0  0  0  0  0  0  0  0  0  0  0
   23.1276    3.0227   31.8010 C   0  0  0  0  0  0  0  0  0  0  0  0
   24.5822    1.6654   33.2461 O   0  0  0  0  0  0  0  0  0  0  0  0
   23.6524    0.5847   33.2552 C   0  0  0  0  0  0  0  0  0  0  0  0
   20.9287   13.2398   30.6987 H   0  0  0  0  0  0  0  0  0  0  0  0
   21.0733   14.8404   29.8965 H   0  0  0  0  0  0  0  0  0  0  0  0
   20.6094   13.3939   28.9378 H   0  0  0  0  0  0  0  0  0  0  0  0
   22.0835   11.3194   28.6401 H   0  0  0  0  0  0  0  0  0  0  0  0
   23.8627   11.4090   28.4098 H   0  0  0  0  0  0  0  0  0  0  0  0
   23.2839    9.7513   30.1589 H   0  0  0  0  0  0  0  0  0  0  0  0
   24.1806   11.1347   30.8723 H   0  0  0  0  0  0  0  0  0  0  0  0
   19.1955    7.1129   32.8813 H   0  0  0  0  0  0  0  0  0  0  0  0
   18.0628   10.3159   33.9247 H   0  0  0  0  0  0  0  0  0  0  0  0
   20.8327   10.2428   33.4538 H   0  0  0  0  0  0  0  0  0  0  0  0
   22.3883    6.6429   31.0458 H   0  0  0  0  0  0  0  0  0  0  0  0
   21.0428    3.4724   30.3231 H   0  0  0  0  0  0  0  0  0  0  0  0
   21.7835    4.7412   29.2895 H   0  0  0  0  0  0  0  0  0  0  0  0
   24.5896    7.7449   28.9184 H   0  0  0  0  0  0  0  0  0  0  0  0
   25.3026    7.3868   30.5277 H   0  0  0  0  0  0  0  0  0  0  0  0
   25.7621    6.3965   29.1013 H   0  0  0  0  0  0  0  0  0  0  0  0
   26.1820    5.2623   31.0516 H   0  0  0  0  0  0  0  0  0  0  0  0
   26.4059    3.3397   32.5751 H   0  0  0  0  0  0  0  0  0  0  0  0
   22.2761    2.3883   31.9985 H   0  0  0  0  0  0  0  0  0  0  0  0
   23.9748   -0.1709   33.9868 H   0  0  0  0  0  0  0  0  0  0  0  0
   22.6562    0.9606   33.5313 H   0  0  0  0  0  0  0  0  0  0  0  0
   23.6085    0.1305   32.2543 H   0  0  0  0  0  0  0  0  0  0  0  0
  1  2  1  0  0  0  0
  2  3  2  0  0  0  0
  2  4  2  0  0  0  0
  2  5  1  0  0  0  0
  5  6  1  0  0  0  0
  6  7  1  0  0  0  0
  7  8  1  0  0  0  0
  8 14  1  0  0  0  0
  8  9  2  0  0  0  0
  9 10  1  0  0  0  0
 10 11  2  0  0  0  0
 10 17  1  0  0  0  0
 11 12  1  0  0  0  0
 12 13  2  0  0  0  0
 12 14  1  0  0  0  0
 14 15  1  0  0  0  0
 15 16  3  0  0  0  0
 17 18  1  0  0  0  0
 18 19  2  0  0  0  0
 18 20  1  0  0  0  0
 20 21  1  0  0  0  0
 21 28  2  0  0  0  0
 21 22  1  0  0  0  0
 22 23  1  0  0  0  0
 22 25  2  0  0  0  0
 23 24  1  0  0  0  0
 25 26  1  0  0  0  0
 26 27  2  0  0  0  0
 27 28  1  0  0  0  0
 27 29  1  0  0  0  0
 29 30  1  0  0  0  0
  1 31  1  0  0  0  0
  1 32  1  0  0  0  0
  1 33  1  0  0  0  0
  5 34  1  0  0  0  0
  5 35  1  0  0  0  0
  6 36  1  0  0  0  0
  6 37  1  0  0  0  0
 11 38  1  0  0  0  0
 13 39  1  0  0  0  0
 14 40  1  0  0  0  0
 17 41  1  0  0  0  0
 20 42  1  0  0  0  0
 20 43  1  0  0  0  0
 24 44  1  0  0  0  0
 24 45  1  0  0  0  0
 24 46  1  0  0  0  0
 25 47  1  0  0  0  0
 26 48  1  0  0  0  0
 28 49  1  0  0  0  0
 30 50  1  0  0  0  0
 30 51  1  0  0  0  0
 30 52  1  0  0  0  0
M  END
> <i_m_stars>
0

> <r_user_dG.exp>
-8.702592

$$$$
18660-1
  -OEChem-05192314073D
 Structure written by MMmdl.
 52 53  0     0  0  0  0  0  0999 V2000
   21.2242   13.7577   29.7743 C   0  0  0  0  0  0  0  0  0  0  0  0
   22.9858   13.4243   29.4250 S   0  0  0  0  0  0  0  0  0  0  0  0
   23.3325   14.1347   28.1853 O   0  0  0  0  0  0  0  0  0  0  0  0
   23.7515   13.6655   30.6540 O   0  0  0  0  0  0  0  0  0  0  0  0
   23.0345   11.6250   29.1007 C   0  0  0  0  0  0  0  0  0  0  0  0
   23.2416   10.8260   30.3896 C   0  0  0  0  0  0  0  0  0  0  0  0
   22.1374   11.0915   31.2625 O   0  0  0  0  0  0  0  0  0  0  0  0
   21.3481   10.0698   31.7543 C   0  0  0  0  0  0  0  0  0  0  0  0
   21.6928    8.8106   31.3991 N   0  0  0  0  0  0  0  0  0  0  0  0
   20.9169    7.7999   31.7865 C   0  0  0  0  0  0  0  0  0  0  0  0
   19.7851    7.9631   32.5715 C   0  0  0  0  0  0  0  0  0  0  0  0
   19.4339    9.2500   32.9461 C   0  0  0  0  0  0  0  0  0  0  0  0
   18.2722    9.3640   33.7009 N   0  0  0  0  0  0  0  0  0  0  0  0
   20.2235   10.3414   32.5432 C   0  0  0  0  0  0  0  0  0  0  0  0
   19.9110   11.7214   32.8945 C   0  0  0  0  0  0  0  0  0  0  0  0
   19.6714   12.8208   33.1675 N   0  0  0  0  0  0  0  0  0  0  0  0
   21.4154    6.6269   31.2767 N   0  0  0  0  0  0  0  0  0  0  0  0
   20.7987    5.4740   31.0443 C   0  0  0  0  0  0  0  0  0  0  0  0
   19.6158    5.2719   31.3028 O   0  0  0  0  0  0  0  0  0  0  0  0
   21.6200    4.4088   30.3253 C   0  0  0  0  0  0  0  0  0  0  0  0
   22.9824    4.1291   30.9583 C   0  0  0  0  0  0  0  0  0  0  0  0
   24.0821    4.9595   30.6887 C   0  0  0  0  0  0  0  0  0  0  0  0
   23.8687    6.0491   29.8635 O   0  0  0  0  0  0  0  0  0  0  0  0
   24.9419    6.9455   29.5869 C   0  0  0  0  0  0  0  0  0  0  0  0
   25.3204    4.6479   31.2676 C   0  0  0  0  0  0  0  0  0  0  0  0
   25.4495    3.5512   32.1202 C   0  0  0  0  0  0  0  0  0  0  0  0
   24.3619    2.7258   32.3925 C   0  0  0  0  0  0  0  0  0  0  0  0
   23.1276    3.0227   31.8010 C   0  0  0  0  0  0  0  0  0  0  0  0
   24.5822    1.6654   33.2461 O   0  0  0  0  0  0  0  0  0  0  0  0
   23.6524    0.5847   33.2552 C   0  0  0  0  0  0  0  0  0  0  0  0
   20.9287   13.2398   30.6987 H   0  0  0  0  0  0  0  0  0  0  0  0
   21.0733   14.8404   29.8965 H   0  0  0  0  0  0  0  0  0  0  0  0
   20.6094   13.3939   28.9378 H   0  0  0  0  0  0  0  0  0  0  0  0
   22.0835   11.3194   28.6401 H   0  0  0  0  0  0  0  0  0  0  0  0
   23.8627   11.4090   28.4098 H   0  0  0  0  0  0  0  0  0  0  0  0
   23.2839    9.7513   30.1589 H   0  0  0  0  0  0  0  0  0  0  0  0
   24.1806   11.1347   30.8723 H   0  0  0  0  0  0  0  0  0  0  0  0
   18.9361    7.5416   32.0132 H   0  0  0  0  0  0  0  0  0  0  0  0
   19.9406    7.3847   33.4941 H   0  0  0  0  0  0  0  0  0  0  0  0
   18.0628   10.3159   33.9247 H   0  0  0  0  0  0  0  0  0  0  0  0
   22.3883    6.6429   31.0458 H   0  0  0  0  0  0  0  0  0  0  0  0
   21.0428    3.4724   30.3231 H   0  0  0  0  0  0  0  0  0  0  0  0
   21.7835    4.7412   29.2895 H   0  0  0  0  0  0  0  0  0  0  0  0
   24.5896    7.7449   28.9184 H   0  0  0  0  0  0  0  0  0  0  0  0
   25.3026    7.3868   30.5277 H   0  0  0  0  0  0  0  0  0  0  0  0
   25.7621    6.3965   29.1013 H   0  0  0  0  0  0  0  0  0  0  0  0
   26.1820    5.2623   31.0516 H   0  0  0  0  0  0  0  0  0  0  0  0
   26.4059    3.3397   32.5751 H   0  0  0  0  0  0  0  0  0  0  0  0
   22.2761    2.3883   31.9985 H   0  0  0  0  0  0  0  0  0  0  0  0
   23.9748   -0.1709   33.9868 H   0  0  0  0  0  0  0  0  0  0  0  0
   22.6562    0.9606   33.5313 H   0  0  0  0  0  0  0  0  0  0  0  0
   23.6085    0.1305   32.2543 H   0  0  0  0  0  0  0  0  0  0  0  0
  1  2  1  0  0  0  0
  2  3  2  0  0  0  0
  2  4  2  0  0  0  0
  2  5  1  0  0  0  0
  5  6  1  0  0  0  0
  6  7  1  0  0  0  0
  7  8  1  0  0  0  0
  8 14  2  0  0  0  0
  8  9  1  0  0  0  0
  9 10  2  0  0  0  0
 10 11  1  0  0  0  0
 10 17  1  0  0  0  0
 11 12  1  0  0  0  0
 12 13  2  0  0  0  0
 12 14  1  0  0  0  0
 14 15  1  0  0  0  0
 15 16  3  0  0  0  0
 17 18  1  0  0  0  0
 18 19  2  0  0  0  0
 18 20  1  0  0  0  0
 20 21  1  0  0  0  0
 21 28  2  0  0  0  0
 21 22  1  0  0  0  0
 22 23  1  0  0  0  0
 22 25  2  0  0  0  0
 23 24  1  0  0  0  0
 25 26  1  0  0  0  0
 26 27  2  0  0  0  0
 27 28  1  0  0  0  0
 27 29  1  0  0  0  0
 29 30  1  0  0  0  0
  1 31  1  0  0  0  0
  1 32  1  0  0  0  0
  1 33  1  0  0  0  0
  5 34  1  0  0  0  0
  5 35  1  0  0  0  0
  6 36  1  0  0  0  0
  6 37  1  0  0  0  0
 11 38  1  0  0  0  0
 11 39  1  0  0  0  0
 13 40  1  0  0  0  0
 17 41  1  0  0  0  0
 20 42  1  0  0  0  0
 20 43  1  0  0  0  0
 24 44  1  0  0  0  0
 24 45  1  0  0  0  0
 24 46  1  0  0  0  0
 25 47  1  0  0  0  0
 26 48  1  0  0  0  0
 28 49  1  0  0  0  0
 30 50  1  0  0  0  0
 30 51  1  0  0  0  0
 30 52  1  0  0  0  0
M  END
> <i_m_stars>
0

> <r_user_dG.exp>
-8.702592

$$$$
18660-1
  -OEChem-05192314073D
 Structure written by MMmdl.
 52 53  0     1  0  0  0  0  0999 V2000
   21.2242   13.7577   29.7743 C   0  0  0  0  0  0  0  0  0  0  0  0
   22.9858   13.4243   29.4250 S   0  0  0  0  0  0  0  0  0  0  0  0
   23.3325   14.1347   28.1853 O   0  0  0  0  0  0  0  0  0  0  0  0
   23.7515   13.6655   30.6540 O   0  0  0  0  0  0  0  0  0  0  0  0
   23.0345   11.6250   29.1007 C   0  0  0  0  0  0  0  0  0  0  0  0
   23.2416   10.8260   30.3896 C   0  0  0  0  0  0  0  0  0  0  0  0
   22.1374   11.0915   31.2625 O   0  0  0  0  0  0  0  0  0  0  0  0
   21.3481   10.0698   31.7543 C   0  0  0  0  0  0  0  0  0  0  0  0
   21.6928    8.8106   31.3991 N   0  0  0  0  0  0  0  0  0  0  0  0
   20.9169    7.7999   31.7865 C   0  0  0  0  0  0  0  0  0  0  0  0
   19.7851    7.9631   32.5715 C   0  0  0  0  0  0  0  0  0  0  0  0
   19.4339    9.2500   32.9461 C   0  0  0  0  0  0  0  0  0  0  0  0
   18.2722    9.3640   33.7009 N   0  0  0  0  0  0  0  0  0  0  0  0
   20.2235   10.3414   32.5432 C   0  0  3  0  0  0  0  0  0  0  0  0
   19.9110   11.7214   32.8945 C   0  0  0  0  0  0  0  0  0  0  0  0
   19.6714   12.8208   33.1675 N   0  0  0  0  0  0  0  0  0  0  0  0
   21.4154    6.6269   31.2767 N   0  0  0  0  0  0  0  0  0  0  0  0
   20.7987    5.4740   31.0443 C   0  0  0  0  0  0  0  0  0  0  0  0
   19.6158    5.2719   31.3028 O   0  0  0  0  0  0  0  0  0  0  0  0
   21.6200    4.4088   30.3253 C   0  0  0  0  0  0  0  0  0  0  0  0
   22.9824    4.1291   30.9583 C   0  0  0  0  0  0  0  0  0  0  0  0
   24.0821    4.9595   30.6887 C   0  0  0  0  0  0  0  0  0  0  0  0
   23.8687    6.0491   29.8635 O   0  0  0  0  0  0  0  0  0  0  0  0
   24.9419    6.9455   29.5869 C   0  0  0  0  0  0  0  0  0  0  0  0
   25.3204    4.6479   31.2676 C   0  0  0  0  0  0  0  0  0  0  0  0
   25.4495    3.5512   32.1202 C   0  0  0  0  0  0  0  0  0  0  0  0
   24.3619    2.7258   32.3925 C   0  0  0  0  0  0  0  0  0  0  0  0
   23.1276    3.0227   31.8010 C   0  0  0  0  0  0  0  0  0  0  0  0
   24.5822    1.6654   33.2461 O   0  0  0  0  0  0  0  0  0  0  0  0
   23.6524    0.5847   33.2552 C   0  0  0  0  0  0  0  0  0  0  0  0
   20.9287   13.2398   30.6987 H   0  0  0  0  0  0  0  0  0  0  0  0
   21.0733   14.8404   29.8965 H   0  0  0  0  0  0  0  0  0  0  0  0
   20.6094   13.3939   28.9378 H   0  0  0  0  0  0  0  0  0  0  0  0
   22.0835   11.3194   28.6401 H   0  0  0  0  0  0  0  0  0  0  0  0
   23.8627   11.4090   28.4098 H   0  0  0  0  0  0  0  0  0  0  0  0
   23.2839    9.7513   30.1589 H   0  0  0  0  0  0  0  0  0  0  0  0
   24.1806   11.1347   30.8723 H   0  0  0  0  0  0  0  0  0  0  0  0
   19.1955    7.1129   32.8813 H   0  0  0  0  0  0  0  0  0  0  0  0
   18.1083   10.3263   33.9180 H   0  0  0  0  0  0  0  0  0  0  0  0
   17.4990    9.0038   33.1790 H   0  0  0  0  0  0  0  0  0  0  0  0
   20.8327   10.2428   33.4538 H   0  0  0  0  0  0  0  0  0  0  0  0
   21.0428    3.4724   30.3231 H   0  0  0  0  0  0  0  0  0  0  0  0
   21.7835    4.7412   29.2895 H   0  0  0  0  0  0  0  0  0  0  0  0
   24.5896    7.7449   28.9184 H   0  0  0  0  0  0  0  0  0  0  0  0
   25.3026    7.3868   30.5277 H   0  0  0  0  0  0  0  0  0  0  0  0
   25.7621    6.3965   29.1013 H   0  0  0  0  0  0  0  0  0  0  0  0
   26.1820    5.2623   31.0516 H   0  0  0  0  0  0  0  0  0  0  0  0
   26.4059    3.3397   32.5751 H   0  0  0  0  0  0  0  0  0  0  0  0
   22.2761    2.3883   31.9985 H   0  0  0  0  0  0  0  0  0  0  0  0
   23.9748   -0.1709   33.9868 H   0  0  0  0  0  0  0  0  0  0  0  0
   22.6562    0.9606   33.5313 H   0  0  0  0  0  0  0  0  0  0  0  0
   23.6085    0.1305   32.2543 H   0  0  0  0  0  0  0  0  0  0  0  0
  1  2  1  0  0  0  0
  2  3  2  0  0  0  0
  2  4  2  0  0  0  0
  2  5  1  0  0  0  0
  5  6  1  0  0  0  0
  6  7  1  0  0  0  0
  7  8  1  0  0  0  0
  8 14  1  0  0  0  0
  8  9  2  0  0  0  0
  9 10  1  0  0  0  0
 10 11  1  0  0  0  0
 10 17  2  0  0  0  0
 11 12  2  0  0  0  0
 12 13  1  0  0  0  0
 12 14  1  0  0  0  0
 14 15  1  0  0  0  0
 15 16  3  0  0  0  0
 17 18  1  0  0  0  0
 18 19  2  0  0  0  0
 18 20  1  0  0  0  0
 20 21  1  0  0  0  0
 21 28  2  0  0  0  0
 21 22  1  0  0  0  0
 22 23  1  0  0  0  0
 22 25  2  0  0  0  0
 23 24  1  0  0  0  0
 25 26  1  0  0  0  0
 26 27  2  0  0  0  0
 27 28  1  0  0  0  0
 27 29  1  0  0  0  0
 29 30  1  0  0  0  0
  1 31  1  0  0  0  0
  1 32  1  0  0  0  0
  1 33  1  0  0  0  0
  5 34  1  0  0  0  0
  5 35  1  0  0  0  0
  6 36  1  0  0  0  0
  6 37  1  0  0  0  0
 11 38  1  0  0  0  0
 13 39  1  0  0  0  0
 13 40  1  0  0  0  0
 14 41  1  0  0  0  0
 20 42  1  0  0  0  0
 20 43  1  0  0  0  0
 24 44  1  0  0  0  0
 24 45  1  0  0  0  0
 24 46  1  0  0  0  0
 25 47  1  0  0  0  0
 26 48  1  0  0  0  0
 28 49  1  0  0  0  0
 30 50  1  0  0  0  0
 30 51  1  0  0  0  0
 30 52  1  0  0  0  0
M  END
> <i_m_stars>
0

> <r_user_dG.exp>
-8.702592

$$$$
18660-1
  -OEChem-05192314073D
 Structure written by MMmdl.
 52 53  0     0  0  0  0  0  0999 V2000
   21.2242   13.7577   29.7743 C   0  0  0  0  0  0  0  0  0  0  0  0
   22.9858   13.4243   29.4250 S   0  0  0  0  0  0  0  0  0  0  0  0
   23.3325   14.1347   28.1853 O   0  0  0  0  0  0  0  0  0  0  0  0
   23.7515   13.6655   30.6540 O   0  0  0  0  0  0  0  0  0  0  0  0
   23.0345   11.6250   29.1007 C   0  0  0  0  0  0  0  0  0  0  0  0
   23.2416   10.8260   30.3896 C   0  0  0  0  0  0  0  0  0  0  0  0
   22.1374   11.0915   31.2625 O   0  0  0  0  0  0  0  0  0  0  0  0
   21.3481   10.0698   31.7543 C   0  0  0  0  0  0  0  0  0  0  0  0
   21.6928    8.8106   31.3991 N   0  0  0  0  0  0  0  0  0  0  0  0
   20.9169    7.7999   31.7865 C   0  0  0  0  0  0  0  0  0  0  0  0
   19.7851    7.9631   32.5715 C   0  0  0  0  0  0  0  0  0  0  0  0
   19.4339    9.2500   32.9461 C   0  0  0  0  0  0  0  0  0  0  0  0
   18.2722    9.3640   33.7009 N   0  0  0  0  0  0  0  0  0  0  0  0
   20.2235   10.3414   32.5432 C   0  0  0  0  0  0  0  0  0  0  0  0
   19.9110   11.7214   32.8945 C   0  0  0  0  0  0  0  0  0  0  0  0
   19.6714   12.8208   33.1675 N   0  0  0  0  0  0  0  0  0  0  0  0
   21.4154    6.6269   31.2767 N   0  0  0  0  0  0  0  0  0  0  0  0
   20.7987    5.4740   31.0443 C   0  0  0  0  0  0  0  0  0  0  0  0
   19.6158    5.2719   31.3028 O   0  0  0  0  0  0  0  0  0  0  0  0
   21.6200    4.4088   30.3253 C   0  0  0  0  0  0  0  0  0  0  0  0
   22.9824    4.1291   30.9583 C   0  0  0  0  0  0  0  0  0  0  0  0
   24.0821    4.9595   30.6887 C   0  0  0  0  0  0  0  0  0  0  0  0
   23.8687    6.0491   29.8635 O   0  0  0  0  0  0  0  0  0  0  0  0
   24.9419    6.9455   29.5869 C   0  0  0  0  0  0  0  0  0  0  0  0
   25.3204    4.6479   31.2676 C   0  0  0  0  0  0  0  0  0  0  0  0
   25.4495    3.5512   32.1202 C   0  0  0  0  0  0  0  0  0  0  0  0
   24.3619    2.7258   32.3925 C   0  0  0  0  0  0  0  0  0  0  0  0
   23.1276    3.0227   31.8010 C   0  0  0  0  0  0  0  0  0  0  0  0
   24.5822    1.6654   33.2461 O   0  0  0  0  0  0  0  0  0  0  0  0
   23.6524    0.5847   33.2552 C   0  0  0  0  0  0  0  0  0  0  0  0
   20.9287   13.2398   30.6987 H   0  0  0  0  0  0  0  0  0  0  0  0
   21.0733   14.8404   29.8965 H   0  0  0  0  0  0  0  0  0  0  0  0
   20.6094   13.3939   28.9378 H   0  0  0  0  0  0  0  0  0  0  0  0
   22.0835   11.3194   28.6401 H   0  0  0  0  0  0  0  0  0  0  0  0
   23.8627   11.4090   28.4098 H   0  0  0  0  0  0  0  0  0  0  0  0
   23.2839    9.7513   30.1589 H   0  0  0  0  0  0  0  0  0  0  0  0
   24.1806   11.1347   30.8723 H   0  0  0  0  0  0  0  0  0  0  0  0
   18.9361    7.5416   32.0132 H   0  0  0  0  0  0  0  0  0  0  0  0
   19.9406    7.3847   33.4941 H   0  0  0  0  0  0  0  0  0  0  0  0
   18.1083   10.3263   33.9180 H   0  0  0  0  0  0  0  0  0  0  0  0
   17.4990    9.0038   33.1790 H   0  0  0  0  0  0  0  0  0  0  0  0
   21.0428    3.4724   30.3231 H   0  0  0  0  0  0  0  0  0  0  0  0
   21.7835    4.7412   29.2895 H   0  0  0  0  0  0  0  0  0  0  0  0
   24.5896    7.7449   28.9184 H   0  0  0  0  0  0  0  0  0  0  0  0
   25.3026    7.3868   30.5277 H   0  0  0  0  0  0  0  0  0  0  0  0
   25.7621    6.3965   29.1013 H   0  0  0  0  0  0  0  0  0  0  0  0
   26.1820    5.2623   31.0516 H   0  0  0  0  0  0  0  0  0  0  0  0
   26.4059    3.3397   32.5751 H   0  0  0  0  0  0  0  0  0  0  0  0
   22.2761    2.3883   31.9985 H   0  0  0  0  0  0  0  0  0  0  0  0
   23.9748   -0.1709   33.9868 H   0  0  0  0  0  0  0  0  0  0  0  0
   22.6562    0.9606   33.5313 H   0  0  0  0  0  0  0  0  0  0  0  0
   23.6085    0.1305   32.2543 H   0  0  0  0  0  0  0  0  0  0  0  0
  1  2  1  0  0  0  0
  2  3  2  0  0  0  0
  2  4  2  0  0  0  0
  2  5  1  0  0  0  0
  5  6  1  0  0  0  0
  6  7  1  0  0  0  0
  7  8  1  0  0  0  0
  8 14  1  0  0  0  0
  8  9  2  0  0  0  0
  9 10  1  0  0  0  0
 10 11  1  0  0  0  0
 10 17  2  0  0  0  0
 11 12  1  0  0  0  0
 12 13  1  0  0  0  0
 12 14  2  0  0  0  0
 14 15  1  0  0  0  0
 15 16  3  0  0  0  0
 17 18  1  0  0  0  0
 18 19  2  0  0  0  0
 18 20  1  0  0  0  0
 20 21  1  0  0  0  0
 21 28  2  0  0  0  0
 21 22  1  0  0  0  0
 22 23  1  0  0  0  0
 22 25  2  0  0  0  0
 23 24  1  0  0  0  0
 25 26  1  0  0  0  0
 26 27  2  0  0  0  0
 27 28  1  0  0  0  0
 27 29  1  0  0  0  0
 29 30  1  0  0  0  0
  1 31  1  0  0  0  0
  1 32  1  0  0  0  0
  1 33  1  0  0  0  0
  5 34  1  0  0  0  0
  5 35  1  0  0  0  0
  6 36  1  0  0  0  0
  6 37  1  0  0  0  0
 11 38  1  0  0  0  0
 11 39  1  0  0  0  0
 13 40  1  0  0  0  0
 13 41  1  0  0  0  0
 20 42  1  0  0  0  0
 20 43  1  0  0  0  0
 24 44  1  0  0  0  0
 24 45  1  0  0  0  0
 24 46  1  0  0  0  0
 25 47  1  0  0  0  0
 26 48  1  0  0  0  0
 28 49  1  0  0  0  0
 30 50  1  0  0  0  0
 30 51  1  0  0  0  0
 30 52  1  0  0  0  0
M  END
> <i_m_stars>
0

> <r_user_dG.exp>
-8.702592

$$$$
18660-1
  -OEChem-05192314073D
 Structure written by MMmdl.
 52 53  0     0  0  0  0  0  0999 V2000
   21.2242   13.7577   29.7743 C   0  0  0  0  0  0  0  0  0  0  0  0
   22.9858   13.4243   29.4250 S   0  0  0  0  0  0  0  0  0  0  0  0
   23.3325   14.1347   28.1853 O   0  0  0  0  0  0  0  0  0  0  0  0
   23.7515   13.6655   30.6540 O   0  0  0  0  0  0  0  0  0  0  0  0
   23.0345   11.6250   29.1007 C   0  0  0  0  0  0  0  0  0  0  0  0
   23.2416   10.8260   30.3896 C   0  0  0  0  0  0  0  0  0  0  0  0
   22.1374   11.0915   31.2625 O   0  0  0  0  0  0  0  0  0  0  0  0
   21.3481   10.0698   31.7543 C   0  0  0  0  0  0  0  0  0  0  0  0
   21.6928    8.8106   31.3991 N   0  0  0  0  0  0  0  0  0  0  0  0
   20.9169    7.7999   31.7865 C   0  0  0  0  0  0  0  0  0  0  0  0
   19.7851    7.9631   32.5715 C   0  0  0  0  0  0  0  0  0  0  0  0
   19.4339    9.2500   32.9461 C   0  0  0  0  0  0  0  0  0  0  0  0
   18.2722    9.3640   33.7009 N   0  0  0  0  0  0  0  0  0  0  0  0
   20.2235   10.3414   32.5432 C   0  0  0  0  0  0  0  0  0  0  0  0
   19.9110   11.7214   32.8945 C   0  0  0  0  0  0  0  0  0  0  0  0
   19.6714   12.8208   33.1675 N   0  0  0  0  0  0  0  0  0  0  0  0
   21.4154    6.6269   31.2767 N   0  0  0  0  0  0  0  0  0  0  0  0
   20.7987    5.4740   31.0443 C   0  0  0  0  0  0  0  0  0  0  0  0
   19.6158    5.2719   31.3028 O   0  0  0  0  0  0  0  0  0  0  0  0
   21.6200    4.4088   30.3253 C   0  0  0  0  0  0  0  0  0  0  0  0
   22.9824    4.1291   30.9583 C   0  0  0  0  0  0  0  0  0  0  0  0
   24.0821    4.9595   30.6887 C   0  0  0  0  0  0  0  0  0  0  0  0
   23.8687    6.0491   29.8635 O   0  0  0  0  0  0  0  0  0  0  0  0
   24.9419    6.9455   29.5869 C   0  0  0  0  0  0  0  0  0  0  0  0
   25.3204    4.6479   31.2676 C   0  0  0  0  0  0  0  0  0  0  0  0
   25.4495    3.5512   32.1202 C   0  0  0  0  0  0  0  0  0  0  0  0
   24.3619    2.7258   32.3925 C   0  0  0  0  0  0  0  0  0  0  0  0
   23.1276    3.0227   31.8010 C   0  0  0  0  0  0  0  0  0  0  0  0
   24.5822    1.6654   33.2461 O   0  0  0  0  0  0  0  0  0  0  0  0
   23.6524    0.5847   33.2552 C   0  0  0  0  0  0  0  0  0  0  0  0
   20.9287   13.2398   30.6987 H   0  0  0  0  0  0  0  0  0  0  0  0
   21.0733   14.8404   29.8965 H   0  0  0  0  0  0  0  0  0  0  0  0
   20.6094   13.3939   28.9378 H   0  0  0  0  0  0  0  0  0  0  0  0
   22.0835   11.3194   28.6401 H   0  0  0  0  0  0  0  0  0  0  0  0
   23.8627   11.4090   28.4098 H   0  0  0  0  0  0  0  0  0  0  0  0
   23.2839    9.7513   30.1589 H   0  0  0  0  0  0  0  0  0  0  0  0
   24.1806   11.1347   30.8723 H   0  0  0  0  0  0  0  0  0  0  0  0
   22.5151    8.6419   30.8556 H   0  0  0  0  0  0  0  0  0  0  0  0
   18.9361    7.5416   32.0132 H   0  0  0  0  0  0  0  0  0  0  0  0
   19.9406    7.3847   33.4941 H   0  0  0  0  0  0  0  0  0  0  0  0
   18.0628   10.3159   33.9247 H   0  0  0  0  0  0  0  0  0  0  0  0
   21.0428    3.4724   30.3231 H   0  0  0  0  0  0  0  0  0  0  0  0
   21.7835    4.7412   29.2895 H   0  0  0  0  0  0  0  0  0  0  0  0
   24.5896    7.7449   28.9184 H   0  0  0  0  0  0  0  0  0  0  0  0
   25.3026    7.3868   30.5277 H   0  0  0  0  0  0  0  0  0  0  0  0
   25.7621    6.3965   29.1013 H   0  0  0  0  0  0  0  0  0  0  0  0
   26.1820    5.2623   31.0516 H   0  0  0  0  0  0  0  0  0  0  0  0
   26.4059    3.3397   32.5751 H   0  0  0  0  0  0  0  0  0  0  0  0
   22.2761    2.3883   31.9985 H   0  0  0  0  0  0  0  0  0  0  0  0
   23.9748   -0.1709   33.9868 H   0  0  0  0  0  0  0  0  0  0  0  0
   22.6562    0.9606   33.5313 H   0  0  0  0  0  0  0  0  0  0  0  0
   23.6085    0.1305   32.2543 H   0  0  0  0  0  0  0  0  0  0  0  0
  1  2  1  0  0  0  0
  2  3  2  0  0  0  0
  2  4  2  0  0  0  0
  2  5  1  0  0  0  0
  5  6  1  0  0  0  0
  6  7  1  0  0  0  0
  7  8  1  0  0  0  0
  8 14  2  0  0  0  0
  8  9  1  0  0  0  0
  9 10  1  0  0  0  0
 10 11  1  0  0  0  0
 10 17  2  0  0  0  0
 11 12  1  0  0  0  0
 12 13  2  0  0  0  0
 12 14  1  0  0  0  0
 14 15  1  0  0  0  0
 15 16  3  0  0  0  0
 17 18  1  0  0  0  0
 18 19  2  0  0  0  0
 18 20  1  0  0  0  0
 20 21  1  0  0  0  0
 21 28  2  0  0  0  0
 21 22  1  0  0  0  0
 22 23  1  0  0  0  0
 22 25  2  0  0  0  0
 23 24  1  0  0  0  0
 25 26  1  0  0  0  0
 26 27  2  0  0  0  0
 27 28  1  0  0  0  0
 27 29  1  0  0  0  0
 29 30  1  0  0  0  0
  1 31  1  0  0  0  0
  1 32  1  0  0  0  0
  1 33  1  0  0  0  0
  5 34  1  0  0  0  0
  5 35  1  0  0  0  0
  6 36  1  0  0  0  0
  6 37  1  0  0  0  0
  9 38  1  0  0  0  0
 11 39  1  0  0  0  0
 11 40  1  0  0  0  0
 13 41  1  0  0  0  0
 20 42  1  0  0  0  0
 20 43  1  0  0  0  0
 24 44  1  0  0  0  0
 24 45  1  0  0  0  0
 24 46  1  0  0  0  0
 25 47  1  0  0  0  0
 26 48  1  0  0  0  0
 28 49  1  0  0  0  0
 30 50  1  0  0  0  0
 30 51  1  0  0  0  0
 30 52  1  0  0  0  0
M  END
> <i_m_stars>
0

> <r_user_dG.exp>
-8.702592

$$$$
18660-1
  -OEChem-05192314073D
 Structure written by MMmdl.
 52 53  0     1  0  0  0  0  0999 V2000
   21.2242   13.7577   29.7743 C   0  0  0  0  0  0  0  0  0  0  0  0
   22.9858   13.4243   29.4250 S   0  0  0  0  0  0  0  0  0  0  0  0
   23.3325   14.1347   28.1853 O   0  0  0  0  0  0  0  0  0  0  0  0
   23.7515   13.6655   30.6540 O   0  0  0  0  0  0  0  0  0  0  0  0
   23.0345   11.6250   29.1007 C   0  0  0  0  0  0  0  0  0  0  0  0
   23.2416   10.8260   30.3896 C   0  0  0  0  0  0  0  0  0  0  0  0
   22.1374   11.0915   31.2625 O   0  0  0  0  0  0  0  0  0  0  0  0
   21.3481   10.0698   31.7543 C   0  0  0  0  0  0  0  0  0  0  0  0
   21.6928    8.8106   31.3991 N   0  0  0  0  0  0  0  0  0  0  0  0
   20.9169    7.7999   31.7865 C   0  0  0  0  0  0  0  0  0  0  0  0
   19.7851    7.9631   32.5715 C   0  0  0  0  0  0  0  0  0  0  0  0
   19.4339    9.2500   32.9461 C   0  0  0  0  0  0  0  0  0  0  0  0
   18.2722    9.3640   33.7009 N   0  0  0  0  0  0  0  0  0  0  0  0
   20.2235   10.3414   32.5432 C   0  0  3  0  0  0  0  0  0  0  0  0
   19.9110   11.7214   32.8945 C   0  0  0  0  0  0  0  0  0  0  0  0
   19.6714   12.8208   33.1675 N   0  0  0  0  0  0  0  0  0  0  0  0
   21.4154    6.6269   31.2767 N   0  0  0  0  0  0  0  0  0  0  0  0
   20.7987    5.4740   31.0443 C   0  0  0  0  0  0  0  0  0  0  0  0
   19.6158    5.2719   31.3028 O   0  0  0  0  0  0  0  0  0  0  0  0
   21.6200    4.4088   30.3253 C   0  0  0  0  0  0  0  0  0  0  0  0
   22.9824    4.1291   30.9583 C   0  0  0  0  0  0  0  0  0  0  0  0
   24.0821    4.9595   30.6887 C   0  0  0  0  0  0  0  0  0  0  0  0
   23.8687    6.0491   29.8635 O   0  0  0  0  0  0  0  0  0  0  0  0
   24.9419    6.9455   29.5869 C   0  0  0  0  0  0  0  0  0  0  0  0
   25.3204    4.6479   31.2676 C   0  0  0  0  0  0  0  0  0  0  0  0
   25.4495    3.5512   32.1202 C   0  0  0  0  0  0  0  0  0  0  0  0
   24.3619    2.7258   32.3925 C   0  0  0  0  0  0  0  0  0  0  0  0
   23.1276    3.0227   31.8010 C   0  0  0  0  0  0  0  0  0  0  0  0
   24.5822    1.6654   33.2461 O   0  0  0  0  0  0  0  0  0  0  0  0
   23.6524    0.5847   33.2552 C   0  0  0  0  0  0  0  0  0  0  0  0
   20.9287   13.2398   30.6987 H   0  0  0  0  0  0  0  0  0  0  0  0
   21.0733   14.8404   29.8965 H   0  0  0  0  0  0  0  0  0  0  0  0
   20.6094   13.3939   28.9378 H   0  0  0  0  0  0  0  0  0  0  0  0
   22.0835   11.3194   28.6401 H   0  0  0  0  0  0  0  0  0  0  0  0
   23.8627   11.4090   28.4098 H   0  0  0  0  0  0  0  0  0  0  0  0
   23.2839    9.7513   30.1589 H   0  0  0  0  0  0  0  0  0  0  0  0
   24.1806   11.1347   30.8723 H   0  0  0  0  0  0  0  0  0  0  0  0
   19.1955    7.1129   32.8813 H   0  0  0  0  0  0  0  0  0  0  0  0
   18.0628   10.3159   33.9247 H   0  0  0  0  0  0  0  0  0  0  0  0
   20.8327   10.2428   33.4538 H   0  0  0  0  0  0  0  0  0  0  0  0
   19.3845    4.3842   31.0560 H   0  0  0  0  0  0  0  0  0  0  0  0
   21.0428    3.4724   30.3231 H   0  0  0  0  0  0  0  0  0  0  0  0
   21.7835    4.7412   29.2895 H   0  0  0  0  0  0  0  0  0  0  0  0
   24.5896    7.7449   28.9184 H   0  0  0  0  0  0  0  0  0  0  0  0
   25.3026    7.3868   30.5277 H   0  0  0  0  0  0  0  0  0  0  0  0
   25.7621    6.3965   29.1013 H   0  0  0  0  0  0  0  0  0  0  0  0
   26.1820    5.2623   31.0516 H   0  0  0  0  0  0  0  0  0  0  0  0
   26.4059    3.3397   32.5751 H   0  0  0  0  0  0  0  0  0  0  0  0
   22.2761    2.3883   31.9985 H   0  0  0  0  0  0  0  0  0  0  0  0
   23.9748   -0.1709   33.9868 H   0  0  0  0  0  0  0  0  0  0  0  0
   22.6562    0.9606   33.5313 H   0  0  0  0  0  0  0  0  0  0  0  0
   23.6085    0.1305   32.2543 H   0  0  0  0  0  0  0  0  0  0  0  0
  1  2  1  0  0  0  0
  2  3  2  0  0  0  0
  2  4  2  0  0  0  0
  2  5  1  0  0  0  0
  5  6  1  0  0  0  0
  6  7  1  0  0  0  0
  7  8  1  0  0  0  0
  8 14  1  0  0  0  0
  8  9  2  0  0  0  0
  9 10  1  0  0  0  0
 10 11  2  0  0  0  0
 10 17  1  0  0  0  0
 11 12  1  0  0  0  0
 12 13  2  0  0  0  0
 12 14  1  0  0  0  0
 14 15  1  0  0  0  0
 15 16  3  0  0  0  0
 17 18  2  0  0  0  0
 18 19  1  0  0  0  0
 18 20  1  0  0  0  0
 20 21  1  0  0  0  0
 21 28  2  0  0  0  0
 21 22  1  0  0  0  0
 22 23  1  0  0  0  0
 22 25  2  0  0  0  0
 23 24  1  0  0  0  0
 25 26  1  0  0  0  0
 26 27  2  0  0  0  0
 27 28  1  0  0  0  0
 27 29  1  0  0  0  0
 29 30  1  0  0  0  0
  1 31  1  0  0  0  0
  1 32  1  0  0  0  0
  1 33  1  0  0  0  0
  5 34  1  0  0  0  0
  5 35  1  0  0  0  0
  6 36  1  0  0  0  0
  6 37  1  0  0  0  0
 11 38  1  0  0  0  0
 13 39  1  0  0  0  0
 14 40  1  0  0  0  0
 19 41  1  0  0  0  0
 20 42  1  0  0  0  0
 20 43  1  0  0  0  0
 24 44  1  0  0  0  0
 24 45  1  0  0  0  0
 24 46  1  0  0  0  0
 25 47  1  0  0  0  0
 26 48  1  0  0  0  0
 28 49  1  0  0  0  0
 30 50  1  0  0  0  0
 30 51  1  0  0  0  0
 30 52  1  0  0  0  0
M  END
> <i_m_stars>
0

> <r_user_dG.exp>
-8.702592

$$$$
18660-1
  -OEChem-05192314073D
 Structure written by MMmdl.
 52 53  0     0  0  0  0  0  0999 V2000
   21.2242   13.7577   29.7743 C   0  0  0  0  0  0  0  0  0  0  0  0
   22.9858   13.4243   29.4250 S   0  0  0  0  0  0  0  0  0  0  0  0
   23.3325   14.1347   28.1853 O   0  0  0  0  0  0  0  0  0  0  0  0
   23.7515   13.6655   30.6540 O   0  0  0  0  0  0  0  0  0  0  0  0
   23.0345   11.6250   29.1007 C   0  0  0  0  0  0  0  0  0  0  0  0
   23.2416   10.8260   30.3896 C   0  0  0  0  0  0  0  0  0  0  0  0
   22.1374   11.0915   31.2625 O   0  0  0  0  0  0  0  0  0  0  0  0
   21.3481   10.0698   31.7543 C   0  0  0  0  0  0  0  0  0  0  0  0
   21.6928    8.8106   31.3991 N   0  0  0  0  0  0  0  0  0  0  0  0
   20.9169    7.7999   31.7865 C   0  0  0  0  0  0  0  0  0  0  0  0
   19.7851    7.9631   32.5715 C   0  0  0  0  0  0  0  0  0  0  0  0
   19.4339    9.2500   32.9461 C   0  0  0  0  0  0  0  0  0  0  0  0
   18.2722    9.3640   33.7009 N   0  0  0  0  0  0  0  0  0  0  0  0
   20.2235   10.3414   32.5432 C   0  0  0  0  0  0  0  0  0  0  0  0
   19.9110   11.7214   32.8945 C   0  0  0  0  0  0  0  0  0  0  0  0
   19.6714   12.8208   33.1675 N   0  0  0  0  0  0  0  0  0  0  0  0
   21.4154    6.6269   31.2767 N   0  0  0  0  0  0  0  0  0  0  0  0
   20.7987    5.4740   31.0443 C   0  0  0  0  0  0  0  0  0  0  0  0
   19.6158    5.2719   31.3028 O   0  0  0  0  0  0  0  0  0  0  0  0
   21.6200    4.4088   30.3253 C   0  0  0  0  0  0  0  0  0  0  0  0
   22.9824    4.1291   30.9583 C   0  0  0  0  0  0  0  0  0  0  0  0
   24.0821    4.9595   30.6887 C   0  0  0  0  0  0  0  0  0  0  0  0
   23.8687    6.0491   29.8635 O   0  0  0  0  0  0  0  0  0  0  0  0
   24.9419    6.9455   29.5869 C   0  0  0  0  0  0  0  0  0  0  0  0
   25.3204    4.6479   31.2676 C   0  0  0  0  0  0  0  0  0  0  0  0
   25.4495    3.5512   32.1202 C   0  0  0  0  0  0  0  0  0  0  0  0
   24.3619    2.7258   32.3925 C   0  0  0  0  0  0  0  0  0  0  0  0
   23.1276    3.0227   31.8010 C   0  0  0  0  0  0  0  0  0  0  0  0
   24.5822    1.6654   33.2461 O   0  0  0  0  0  0  0  0  0  0  0  0
   23.6524    0.5847   33.2552 C   0  0  0  0  0  0  0  0  0  0  0  0
   20.9287   13.2398   30.6987 H   0  0  0  0  0  0  0  0  0  0  0  0
   21.0733   14.8404   29.8965 H   0  0  0  0  0  0  0  0  0  0  0  0
   20.6094   13.3939   28.9378 H   0  0  0  0  0  0  0  0  0  0  0  0
   22.0835   11.3194   28.6401 H   0  0  0  0  0  0  0  0  0  0  0  0
   23.8627   11.4090   28.4098 H   0  0  0  0  0  0  0  0  0  0  0  0
   23.2839    9.7513   30.1589 H   0  0  0  0  0  0  0  0  0  0  0  0
   24.1806   11.1347   30.8723 H   0  0  0  0  0  0  0  0  0  0  0  0
   18.9361    7.5416   32.0132 H   0  0  0  0  0  0  0  0  0  0  0  0
   19.9406    7.3847   33.4941 H   0  0  0  0  0  0  0  0  0  0  0  0
   18.0628   10.3159   33.9247 H   0  0  0  0  0  0  0  0  0  0  0  0
   19.3845    4.3842   31.0560 H   0  0  0  0  0  0  0  0  0  0  0  0
   21.0428    3.4724   30.3231 H   0  0  0  0  0  0  0  0  0  0  0  0
   21.7835    4.7412   29.2895 H   0  0  0  0  0  0  0  0  0  0  0  0
   24.5896    7.7449   28.9184 H   0  0  0  0  0  0  0  0  0  0  0  0
   25.3026    7.3868   30.5277 H   0  0  0  0  0  0  0  0  0  0  0  0
   25.7621    6.3965   29.1013 H   0  0  0  0  0  0  0  0  0  0  0  0
   26.1820    5.2623   31.0516 H   0  0  0  0  0  0  0  0  0  0  0  0
   26.4059    3.3397   32.5751 H   0  0  0  0  0  0  0  0  0  0  0  0
   22.2761    2.3883   31.9985 H   0  0  0  0  0  0  0  0  0  0  0  0
   23.9748   -0.1709   33.9868 H   0  0  0  0  0  0  0  0  0  0  0  0
   22.6562    0.9606   33.5313 H   0  0  0  0  0  0  0  0  0  0  0  0
   23.6085    0.1305   32.2543 H   0  0  0  0  0  0  0  0  0  0  0  0
  1  2  1  0  0  0  0
  2  3  2  0  0  0  0
  2  4  2  0  0  0  0
  2  5  1  0  0  0  0
  5  6  1  0  0  0  0
  6  7  1  0  0  0  0
  7  8  1  0  0  0  0
  8 14  2  0  0  0  0
  8  9  1  0  0  0  0
  9 10  2  0  0  0  0
 10 11  1  0  0  0  0
 10 17  1  0  0  0  0
 11 12  1  0  0  0  0
 12 13  2  0  0  0  0
 12 14  1  0  0  0  0
 14 15  1  0  0  0  0
 15 16  3  0  0  0  0
 17 18  2  0  0  0  0
 18 19  1  0  0  0  0
 18 20  1  0  0  0  0
 20 21  1  0  0  0  0
 21 28  2  0  0  0  0
 21 22  1  0  0  0  0
 22 23  1  0  0  0  0
 22 25  2  0  0  0  0
 23 24  1  0  0  0  0
 25 26  1  0  0  0  0
 26 27  2  0  0  0  0
 27 28  1  0  0  0  0
 27 29  1  0  0  0  0
 29 30  1  0  0  0  0
  1 31  1  0  0  0  0
  1 32  1  0  0  0  0
  1 33  1  0  0  0  0
  5 34  1  0  0  0  0
  5 35  1  0  0  0  0
  6 36  1  0  0  0  0
  6 37  1  0  0  0  0
 11 38  1  0  0  0  0
 11 39  1  0  0  0  0
 13 40  1  0  0  0  0
 19 41  1  0  0  0  0
 20 42  1  0  0  0  0
 20 43  1  0  0  0  0
 24 44  1  0  0  0  0
 24 45  1  0  0  0  0
 24 46  1  0  0  0  0
 25 47  1  0  0  0  0
 26 48  1  0  0  0  0
 28 49  1  0  0  0  0
 30 50  1  0  0  0  0
 30 51  1  0  0  0  0
 30 52  1  0  0  0  0
M  END
> <i_m_stars>
0

> <r_user_dG.exp>
-8.702592

$$$$
