18638-1
  -OEChem-05162309453D
 Structure written by MMmdl.
 52 53  0     0  0  0  0  0  0999 V2000
   24.0828   12.3868   30.2428 C   0  0  0  0  0  0  0  0  0  0  0  0
   23.3511   11.0608   30.4631 C   0  0  0  0  0  0  0  0  0  0  0  0
   22.2130   11.3224   31.2794 O   0  0  0  0  0  0  0  0  0  0  0  0
   21.4137   10.2724   31.6978 C   0  0  0  0  0  0  0  0  0  0  0  0
   21.7583    9.0214   31.2860 N   0  0  0  0  0  0  0  0  0  0  0  0
   20.9833    7.9917   31.6587 C   0  0  0  0  0  0  0  0  0  0  0  0
   19.8720    8.1371   32.4777 C   0  0  0  0  0  0  0  0  0  0  0  0
   19.5223    9.4096   32.8934 C   0  0  0  0  0  0  0  0  0  0  0  0
   18.3826    9.4917   33.6852 N   0  0  0  0  0  0  0  0  0  0  0  0
   20.2930   10.5154   32.4999 C   0  0  0  0  0  0  0  0  0  0  0  0
   19.9661   11.8857   32.8768 C   0  0  0  0  0  0  0  0  0  0  0  0
   19.7139   12.9766   33.1706 N   0  0  0  0  0  0  0  0  0  0  0  0
   21.4471    6.8094   31.1176 N   0  0  0  0  0  0  0  0  0  0  0  0
   20.8648    5.6102   31.0302 C   0  0  0  0  0  0  0  0  0  0  0  0
   19.7384    5.3480   31.4462 O   0  0  0  0  0  0  0  0  0  0  0  0
   21.6493    4.5406   30.2812 C   0  0  0  0  0  0  0  0  0  0  0  0
   23.0099    4.2326   30.8981 C   0  0  0  0  0  0  0  0  0  0  0  0
   24.1205    5.0418   30.6147 C   0  0  0  0  0  0  0  0  0  0  0  0
   23.9162    6.1432   29.8018 O   0  0  0  0  0  0  0  0  0  0  0  0
   24.9744    7.0761   29.5922 C   0  0  0  0  0  0  0  0  0  0  0  0
   25.3630    4.6931   31.1582 C   0  0  0  0  0  0  0  0  0  0  0  0
   25.4887    3.5794   31.9953 C   0  0  0  0  0  0  0  0  0  0  0  0
   27.1113    3.1594   32.6460 S   0  0  0  0  0  0  0  0  0  0  0  0
   28.0639    4.2094   32.2494 O   0  0  0  0  0  0  0  0  0  0  0  0
   26.9781    2.8102   34.0695 O   0  0  0  0  0  0  0  0  0  0  0  0
   27.5657    1.6315   31.7313 C   0  0  0  0  0  0  0  0  0  0  0  0
   24.3792    2.7781   32.2959 C   0  0  0  0  0  0  0  0  0  0  0  0
   23.1415    3.1205   31.7349 C   0  0  0  0  0  0  0  0  0  0  0  0
   24.5589    1.6919   33.1307 O   0  0  0  0  0  0  0  0  0  0  0  0
   23.5930    0.6441   33.1472 C   0  0  0  0  0  0  0  0  0  0  0  0
   24.9692   12.2170   29.6139 H   0  0  0  0  0  0  0  0  0  0  0  0
   23.4094   13.0983   29.7426 H   0  0  0  0  0  0  0  0  0  0  0  0
   24.3956   12.7985   31.2137 H   0  0  0  0  0  0  0  0  0  0  0  0
   23.0308   10.6450   29.4964 H   0  0  0  0  0  0  0  0  0  0  0  0
   24.0170   10.3452   30.9675 H   0  0  0  0  0  0  0  0  0  0  0  0
   19.2941    7.2774   32.7832 H   0  0  0  0  0  0  0  0  0  0  0  0
   18.2155   10.4463   33.9318 H   0  0  0  0  0  0  0  0  0  0  0  0
   17.5978    9.1365   33.1774 H   0  0  0  0  0  0  0  0  0  0  0  0
   22.3670    6.8585   30.7284 H   0  0  0  0  0  0  0  0  0  0  0  0
   21.0543    3.6154   30.2731 H   0  0  0  0  0  0  0  0  0  0  0  0
   21.8063    4.8846   29.2482 H   0  0  0  0  0  0  0  0  0  0  0  0
   24.6294    7.8786   28.9236 H   0  0  0  0  0  0  0  0  0  0  0  0
   25.2785    7.5082   30.5570 H   0  0  0  0  0  0  0  0  0  0  0  0
   25.8319    6.5610   29.1345 H   0  0  0  0  0  0  0  0  0  0  0  0
   26.2332    5.2901   30.9287 H   0  0  0  0  0  0  0  0  0  0  0  0
   28.5572    1.2874   32.0609 H   0  0  0  0  0  0  0  0  0  0  0  0
   26.8202    0.8482   31.9329 H   0  0  0  0  0  0  0  0  0  0  0  0
   27.5915    1.8442   30.6524 H   0  0  0  0  0  0  0  0  0  0  0  0
   22.2743    2.5148   31.9528 H   0  0  0  0  0  0  0  0  0  0  0  0
   23.9019   -0.1287   33.8665 H   0  0  0  0  0  0  0  0  0  0  0  0
   22.6153    1.0515   33.4442 H   0  0  0  0  0  0  0  0  0  0  0  0
   23.5159    0.2008   32.1434 H   0  0  0  0  0  0  0  0  0  0  0  0
  1  2  1  0  0  0  0
  2  3  1  0  0  0  0
  3  4  1  0  0  0  0
  4 10  2  0  0  0  0
  4  5  1  0  0  0  0
  5  6  2  0  0  0  0
  6  7  1  0  0  0  0
  6 13  1  0  0  0  0
  7  8  2  0  0  0  0
  8  9  1  0  0  0  0
  8 10  1  0  0  0  0
 10 11  1  0  0  0  0
 11 12  3  0  0  0  0
 13 14  1  0  0  0  0
 14 15  2  0  0  0  0
 14 16  1  0  0  0  0
 16 17  1  0  0  0  0
 17 28  2  0  0  0  0
 17 18  1  0  0  0  0
 18 19  1  0  0  0  0
 18 21  2  0  0  0  0
 19 20  1  0  0  0  0
 21 22  1  0  0  0  0
 22 23  1  0  0  0  0
 22 27  2  0  0  0  0
 23 24  2  0  0  0  0
 23 25  2  0  0  0  0
 23 26  1  0  0  0  0
 27 28  1  0  0  0  0
 27 29  1  0  0  0  0
 29 30  1  0  0  0  0
  1 31  1  0  0  0  0
  1 32  1  0  0  0  0
  1 33  1  0  0  0  0
  2 34  1  0  0  0  0
  2 35  1  0  0  0  0
  7 36  1  0  0  0  0
  9 37  1  0  0  0  0
  9 38  1  0  0  0  0
 13 39  1  0  0  0  0
 16 40  1  0  0  0  0
 16 41  1  0  0  0  0
 20 42  1  0  0  0  0
 20 43  1  0  0  0  0
 20 44  1  0  0  0  0
 21 45  1  0  0  0  0
 26 46  1  0  0  0  0
 26 47  1  0  0  0  0
 26 48  1  0  0  0  0
 28 49  1  0  0  0  0
 30 50  1  0  0  0  0
 30 51  1  0  0  0  0
 30 52  1  0  0  0  0
M  END
> <i_m_stars>
0

> <r_user_dG.exp>
-10.093111

$$$$
18638-1
  -OEChem-05162309453D
 Structure written by MMmdl.
 52 53  0     0  0  0  0  0  0999 V2000
   24.0828   12.3868   30.2428 C   0  0  0  0  0  0  0  0  0  0  0  0
   23.3511   11.0608   30.4631 C   0  0  0  0  0  0  0  0  0  0  0  0
   22.2130   11.3224   31.2794 O   0  0  0  0  0  0  0  0  0  0  0  0
   21.4137   10.2724   31.6978 C   0  0  0  0  0  0  0  0  0  0  0  0
   21.7583    9.0214   31.2860 N   0  0  0  0  0  0  0  0  0  0  0  0
   20.9833    7.9917   31.6587 C   0  0  0  0  0  0  0  0  0  0  0  0
   19.8720    8.1371   32.4777 C   0  0  0  0  0  0  0  0  0  0  0  0
   19.5223    9.4096   32.8934 C   0  0  0  0  0  0  0  0  0  0  0  0
   18.3826    9.4917   33.6852 N   0  0  0  0  0  0  0  0  0  0  0  0
   20.2930   10.5154   32.4999 C   0  0  0  0  0  0  0  0  0  0  0  0
   19.9661   11.8857   32.8768 C   0  0  0  0  0  0  0  0  0  0  0  0
   19.7139   12.9766   33.1706 N   0  0  0  0  0  0  0  0  0  0  0  0
   21.4471    6.8094   31.1176 N   0  0  0  0  0  0  0  0  0  0  0  0
   20.8648    5.6102   31.0302 C   0  0  0  0  0  0  0  0  0  0  0  0
   19.7384    5.3480   31.4462 O   0  0  0  0  0  0  0  0  0  0  0  0
   21.6493    4.5406   30.2812 C   0  0  0  0  0  0  0  0  0  0  0  0
   23.0099    4.2326   30.8981 C   0  0  0  0  0  0  0  0  0  0  0  0
   24.1205    5.0418   30.6147 C   0  0  0  0  0  0  0  0  0  0  0  0
   23.9162    6.1432   29.8018 O   0  0  0  0  0  0  0  0  0  0  0  0
   24.9744    7.0761   29.5922 C   0  0  0  0  0  0  0  0  0  0  0  0
   25.3630    4.6931   31.1582 C   0  0  0  0  0  0  0  0  0  0  0  0
   25.4887    3.5794   31.9953 C   0  0  0  0  0  0  0  0  0  0  0  0
   27.1113    3.1594   32.6460 S   0  0  0  0  0  0  0  0  0  0  0  0
   28.0639    4.2094   32.2494 O   0  0  0  0  0  0  0  0  0  0  0  0
   26.9781    2.8102   34.0695 O   0  0  0  0  0  0  0  0  0  0  0  0
   27.5657    1.6315   31.7313 C   0  0  0  0  0  0  0  0  0  0  0  0
   24.3792    2.7781   32.2959 C   0  0  0  0  0  0  0  0  0  0  0  0
   23.1415    3.1205   31.7349 C   0  0  0  0  0  0  0  0  0  0  0  0
   24.5589    1.6919   33.1307 O   0  0  0  0  0  0  0  0  0  0  0  0
   23.5930    0.6441   33.1472 C   0  0  0  0  0  0  0  0  0  0  0  0
   24.9692   12.2170   29.6139 H   0  0  0  0  0  0  0  0  0  0  0  0
   23.4094   13.0983   29.7426 H   0  0  0  0  0  0  0  0  0  0  0  0
   24.3956   12.7985   31.2137 H   0  0  0  0  0  0  0  0  0  0  0  0
   23.0308   10.6450   29.4964 H   0  0  0  0  0  0  0  0  0  0  0  0
   24.0170   10.3452   30.9675 H   0  0  0  0  0  0  0  0  0  0  0  0
   19.2941    7.2774   32.7832 H   0  0  0  0  0  0  0  0  0  0  0  0
   18.2155   10.4463   33.9318 H   0  0  0  0  0  0  0  0  0  0  0  0
   17.5978    9.1365   33.1774 H   0  0  0  0  0  0  0  0  0  0  0  0
   19.5408    4.4351   31.2727 H   0  0  0  0  0  0  0  0  0  0  0  0
   21.0543    3.6154   30.2731 H   0  0  0  0  0  0  0  0  0  0  0  0
   21.8063    4.8846   29.2482 H   0  0  0  0  0  0  0  0  0  0  0  0
   24.6294    7.8786   28.9236 H   0  0  0  0  0  0  0  0  0  0  0  0
   25.2785    7.5082   30.5570 H   0  0  0  0  0  0  0  0  0  0  0  0
   25.8319    6.5610   29.1345 H   0  0  0  0  0  0  0  0  0  0  0  0
   26.2332    5.2901   30.9287 H   0  0  0  0  0  0  0  0  0  0  0  0
   28.5572    1.2874   32.0609 H   0  0  0  0  0  0  0  0  0  0  0  0
   26.8202    0.8482   31.9329 H   0  0  0  0  0  0  0  0  0  0  0  0
   27.5915    1.8442   30.6524 H   0  0  0  0  0  0  0  0  0  0  0  0
   22.2743    2.5148   31.9528 H   0  0  0  0  0  0  0  0  0  0  0  0
   23.9019   -0.1287   33.8665 H   0  0  0  0  0  0  0  0  0  0  0  0
   22.6153    1.0515   33.4442 H   0  0  0  0  0  0  0  0  0  0  0  0
   23.5159    0.2008   32.1434 H   0  0  0  0  0  0  0  0  0  0  0  0
  1  2  1  0  0  0  0
  2  3  1  0  0  0  0
  3  4  1  0  0  0  0
  4 10  2  0  0  0  0
  4  5  1  0  0  0  0
  5  6  2  0  0  0  0
  6  7  1  0  0  0  0
  6 13  1  0  0  0  0
  7  8  2  0  0  0  0
  8  9  1  0  0  0  0
  8 10  1  0  0  0  0
 10 11  1  0  0  0  0
 11 12  3  0  0  0  0
 13 14  2  0  0  0  0
 14 15  1  0  0  0  0
 14 16  1  0  0  0  0
 16 17  1  0  0  0  0
 17 28  2  0  0  0  0
 17 18  1  0  0  0  0
 18 19  1  0  0  0  0
 18 21  2  0  0  0  0
 19 20  1  0  0  0  0
 21 22  1  0  0  0  0
 22 23  1  0  0  0  0
 22 27  2  0  0  0  0
 23 24  2  0  0  0  0
 23 25  2  0  0  0  0
 23 26  1  0  0  0  0
 27 28  1  0  0  0  0
 27 29  1  0  0  0  0
 29 30  1  0  0  0  0
  1 31  1  0  0  0  0
  1 32  1  0  0  0  0
  1 33  1  0  0  0  0
  2 34  1  0  0  0  0
  2 35  1  0  0  0  0
  7 36  1  0  0  0  0
  9 37  1  0  0  0  0
  9 38  1  0  0  0  0
 15 39  1  0  0  0  0
 16 40  1  0  0  0  0
 16 41  1  0  0  0  0
 20 42  1  0  0  0  0
 20 43  1  0  0  0  0
 20 44  1  0  0  0  0
 21 45  1  0  0  0  0
 26 46  1  0  0  0  0
 26 47  1  0  0  0  0
 26 48  1  0  0  0  0
 28 49  1  0  0  0  0
 30 50  1  0  0  0  0
 30 51  1  0  0  0  0
 30 52  1  0  0  0  0
M  END
> <i_m_stars>
0

> <r_user_dG.exp>
-10.093111

$$$$
18638-1
  -OEChem-05162309453D
 Structure written by MMmdl.
 52 53  0     0  0  0  0  0  0999 V2000
   24.0828   12.3868   30.2428 C   0  0  0  0  0  0  0  0  0  0  0  0
   23.3511   11.0608   30.4631 C   0  0  0  0  0  0  0  0  0  0  0  0
   22.2130   11.3224   31.2794 O   0  0  0  0  0  0  0  0  0  0  0  0
   21.4137   10.2724   31.6978 C   0  0  0  0  0  0  0  0  0  0  0  0
   21.7583    9.0214   31.2860 N   0  0  0  0  0  0  0  0  0  0  0  0
   20.9833    7.9917   31.6587 C   0  0  0  0  0  0  0  0  0  0  0  0
   19.8720    8.1371   32.4777 C   0  0  0  0  0  0  0  0  0  0  0  0
   19.5223    9.4096   32.8934 C   0  0  0  0  0  0  0  0  0  0  0  0
   18.3826    9.4917   33.6852 N   0  0  0  0  0  0  0  0  0  0  0  0
   20.2930   10.5154   32.4999 C   0  0  0  0  0  0  0  0  0  0  0  0
   19.9661   11.8857   32.8768 C   0  0  0  0  0  0  0  0  0  0  0  0
   19.7139   12.9766   33.1706 N   0  0  0  0  0  0  0  0  0  0  0  0
   21.4471    6.8094   31.1176 N   0  0  0  0  0  0  0  0  0  0  0  0
   20.8648    5.6102   31.0302 C   0  0  0  0  0  0  0  0  0  0  0  0
   19.7384    5.3480   31.4462 O   0  0  0  0  0  0  0  0  0  0  0  0
   21.6493    4.5406   30.2812 C   0  0  0  0  0  0  0  0  0  0  0  0
   23.0099    4.2326   30.8981 C   0  0  0  0  0  0  0  0  0  0  0  0
   24.1205    5.0418   30.6147 C   0  0  0  0  0  0  0  0  0  0  0  0
   23.9162    6.1432   29.8018 O   0  0  0  0  0  0  0  0  0  0  0  0
   24.9744    7.0761   29.5922 C   0  0  0  0  0  0  0  0  0  0  0  0
   25.3630    4.6931   31.1582 C   0  0  0  0  0  0  0  0  0  0  0  0
   25.4887    3.5794   31.9953 C   0  0  0  0  0  0  0  0  0  0  0  0
   27.1113    3.1594   32.6460 S   0  0  0  0  0  0  0  0  0  0  0  0
   28.0639    4.2094   32.2494 O   0  0  0  0  0  0  0  0  0  0  0  0
   26.9781    2.8102   34.0695 O   0  0  0  0  0  0  0  0  0  0  0  0
   27.5657    1.6315   31.7313 C   0  0  0  0  0  0  0  0  0  0  0  0
   24.3792    2.7781   32.2959 C   0  0  0  0  0  0  0  0  0  0  0  0
   23.1415    3.1205   31.7349 C   0  0  0  0  0  0  0  0  0  0  0  0
   24.5589    1.6919   33.1307 O   0  0  0  0  0  0  0  0  0  0  0  0
   23.5930    0.6441   33.1472 C   0  0  0  0  0  0  0  0  0  0  0  0
   24.9692   12.2170   29.6139 H   0  0  0  0  0  0  0  0  0  0  0  0
   23.4094   13.0983   29.7426 H   0  0  0  0  0  0  0  0  0  0  0  0
   24.3956   12.7985   31.2137 H   0  0  0  0  0  0  0  0  0  0  0  0
   23.0308   10.6450   29.4964 H   0  0  0  0  0  0  0  0  0  0  0  0
   24.0170   10.3452   30.9675 H   0  0  0  0  0  0  0  0  0  0  0  0
   22.5691    8.8736   30.7197 H   0  0  0  0  0  0  0  0  0  0  0  0
   19.2941    7.2774   32.7832 H   0  0  0  0  0  0  0  0  0  0  0  0
   18.1734   10.4347   33.9440 H   0  0  0  0  0  0  0  0  0  0  0  0
   22.3670    6.8585   30.7284 H   0  0  0  0  0  0  0  0  0  0  0  0
   21.0543    3.6154   30.2731 H   0  0  0  0  0  0  0  0  0  0  0  0
   21.8063    4.8846   29.2482 H   0  0  0  0  0  0  0  0  0  0  0  0
   24.6294    7.8786   28.9236 H   0  0  0  0  0  0  0  0  0  0  0  0
   25.2785    7.5082   30.5570 H   0  0  0  0  0  0  0  0  0  0  0  0
   25.8319    6.5610   29.1345 H   0  0  0  0  0  0  0  0  0  0  0  0
   26.2332    5.2901   30.9287 H   0  0  0  0  0  0  0  0  0  0  0  0
   28.5572    1.2874   32.0609 H   0  0  0  0  0  0  0  0  0  0  0  0
   26.8202    0.8482   31.9329 H   0  0  0  0  0  0  0  0  0  0  0  0
   27.5915    1.8442   30.6524 H   0  0  0  0  0  0  0  0  0  0  0  0
   22.2743    2.5148   31.9528 H   0  0  0  0  0  0  0  0  0  0  0  0
   23.9019   -0.1287   33.8665 H   0  0  0  0  0  0  0  0  0  0  0  0
   22.6153    1.0515   33.4442 H   0  0  0  0  0  0  0  0  0  0  0  0
   23.5159    0.2008   32.1434 H   0  0  0  0  0  0  0  0  0  0  0  0
  1  2  1  0  0  0  0
  2  3  1  0  0  0  0
  3  4  1  0  0  0  0
  4 10  2  0  0  0  0
  4  5  1  0  0  0  0
  5  6  1  0  0  0  0
  6  7  2  0  0  0  0
  6 13  1  0  0  0  0
  7  8  1  0  0  0  0
  8  9  2  0  0  0  0
  8 10  1  0  0  0  0
 10 11  1  0  0  0  0
 11 12  3  0  0  0  0
 13 14  1  0  0  0  0
 14 15  2  0  0  0  0
 14 16  1  0  0  0  0
 16 17  1  0  0  0  0
 17 28  2  0  0  0  0
 17 18  1  0  0  0  0
 18 19  1  0  0  0  0
 18 21  2  0  0  0  0
 19 20  1  0  0  0  0
 21 22  1  0  0  0  0
 22 23  1  0  0  0  0
 22 27  2  0  0  0  0
 23 24  2  0  0  0  0
 23 25  2  0  0  0  0
 23 26  1  0  0  0  0
 27 28  1  0  0  0  0
 27 29  1  0  0  0  0
 29 30  1  0  0  0  0
  1 31  1  0  0  0  0
  1 32  1  0  0  0  0
  1 33  1  0  0  0  0
  2 34  1  0  0  0  0
  2 35  1  0  0  0  0
  5 36  1  0  0  0  0
  7 37  1  0  0  0  0
  9 38  1  0  0  0  0
 13 39  1  0  0  0  0
 16 40  1  0  0  0  0
 16 41  1  0  0  0  0
 20 42  1  0  0  0  0
 20 43  1  0  0  0  0
 20 44  1  0  0  0  0
 21 45  1  0  0  0  0
 26 46  1  0  0  0  0
 26 47  1  0  0  0  0
 26 48  1  0  0  0  0
 28 49  1  0  0  0  0
 30 50  1  0  0  0  0
 30 51  1  0  0  0  0
 30 52  1  0  0  0  0
M  END
> <i_m_stars>
0

> <r_user_dG.exp>
-10.093111

$$$$
18638-1
  -OEChem-05162309453D
 Structure written by MMmdl.
 52 53  0     0  0  0  0  0  0999 V2000
   24.0828   12.3868   30.2428 C   0  0  0  0  0  0  0  0  0  0  0  0
   23.3511   11.0608   30.4631 C   0  0  0  0  0  0  0  0  0  0  0  0
   22.2130   11.3224   31.2794 O   0  0  0  0  0  0  0  0  0  0  0  0
   21.4137   10.2724   31.6978 C   0  0  0  0  0  0  0  0  0  0  0  0
   21.7583    9.0214   31.2860 N   0  0  0  0  0  0  0  0  0  0  0  0
   20.9833    7.9917   31.6587 C   0  0  0  0  0  0  0  0  0  0  0  0
   19.8720    8.1371   32.4777 C   0  0  0  0  0  0  0  0  0  0  0  0
   19.5223    9.4096   32.8934 C   0  0  0  0  0  0  0  0  0  0  0  0
   18.3826    9.4917   33.6852 N   0  0  0  0  0  0  0  0  0  0  0  0
   20.2930   10.5154   32.4999 C   0  0  0  0  0  0  0  0  0  0  0  0
   19.9661   11.8857   32.8768 C   0  0  0  0  0  0  0  0  0  0  0  0
   19.7139   12.9766   33.1706 N   0  0  0  0  0  0  0  0  0  0  0  0
   21.4471    6.8094   31.1176 N   0  0  0  0  0  0  0  0  0  0  0  0
   20.8648    5.6102   31.0302 C   0  0  0  0  0  0  0  0  0  0  0  0
   19.7384    5.3480   31.4462 O   0  0  0  0  0  0  0  0  0  0  0  0
   21.6493    4.5406   30.2812 C   0  0  0  0  0  0  0  0  0  0  0  0
   23.0099    4.2326   30.8981 C   0  0  0  0  0  0  0  0  0  0  0  0
   24.1205    5.0418   30.6147 C   0  0  0  0  0  0  0  0  0  0  0  0
   23.9162    6.1432   29.8018 O   0  0  0  0  0  0  0  0  0  0  0  0
   24.9744    7.0761   29.5922 C   0  0  0  0  0  0  0  0  0  0  0  0
   25.3630    4.6931   31.1582 C   0  0  0  0  0  0  0  0  0  0  0  0
   25.4887    3.5794   31.9953 C   0  0  0  0  0  0  0  0  0  0  0  0
   27.1113    3.1594   32.6460 S   0  0  0  0  0  0  0  0  0  0  0  0
   28.0639    4.2094   32.2494 O   0  0  0  0  0  0  0  0  0  0  0  0
   26.9781    2.8102   34.0695 O   0  0  0  0  0  0  0  0  0  0  0  0
   27.5657    1.6315   31.7313 C   0  0  0  0  0  0  0  0  0  0  0  0
   24.3792    2.7781   32.2959 C   0  0  0  0  0  0  0  0  0  0  0  0
   23.1415    3.1205   31.7349 C   0  0  0  0  0  0  0  0  0  0  0  0
   24.5589    1.6919   33.1307 O   0  0  0  0  0  0  0  0  0  0  0  0
   23.5930    0.6441   33.1472 C   0  0  0  0  0  0  0  0  0  0  0  0
   24.9692   12.2170   29.6139 H   0  0  0  0  0  0  0  0  0  0  0  0
   23.4094   13.0983   29.7426 H   0  0  0  0  0  0  0  0  0  0  0  0
   24.3956   12.7985   31.2137 H   0  0  0  0  0  0  0  0  0  0  0  0
   23.0308   10.6450   29.4964 H   0  0  0  0  0  0  0  0  0  0  0  0
   24.0170   10.3452   30.9675 H   0  0  0  0  0  0  0  0  0  0  0  0
   22.5691    8.8736   30.7197 H   0  0  0  0  0  0  0  0  0  0  0  0
   19.2941    7.2774   32.7832 H   0  0  0  0  0  0  0  0  0  0  0  0
   18.2155   10.4463   33.9318 H   0  0  0  0  0  0  0  0  0  0  0  0
   17.5978    9.1365   33.1774 H   0  0  0  0  0  0  0  0  0  0  0  0
   21.0543    3.6154   30.2731 H   0  0  0  0  0  0  0  0  0  0  0  0
   21.8063    4.8846   29.2482 H   0  0  0  0  0  0  0  0  0  0  0  0
   24.6294    7.8786   28.9236 H   0  0  0  0  0  0  0  0  0  0  0  0
   25.2785    7.5082   30.5570 H   0  0  0  0  0  0  0  0  0  0  0  0
   25.8319    6.5610   29.1345 H   0  0  0  0  0  0  0  0  0  0  0  0
   26.2332    5.2901   30.9287 H   0  0  0  0  0  0  0  0  0  0  0  0
   28.5572    1.2874   32.0609 H   0  0  0  0  0  0  0  0  0  0  0  0
   26.8202    0.8482   31.9329 H   0  0  0  0  0  0  0  0  0  0  0  0
   27.5915    1.8442   30.6524 H   0  0  0  0  0  0  0  0  0  0  0  0
   22.2743    2.5148   31.9528 H   0  0  0  0  0  0  0  0  0  0  0  0
   23.9019   -0.1287   33.8665 H   0  0  0  0  0  0  0  0  0  0  0  0
   22.6153    1.0515   33.4442 H   0  0  0  0  0  0  0  0  0  0  0  0
   23.5159    0.2008   32.1434 H   0  0  0  0  0  0  0  0  0  0  0  0
  1  2  1  0  0  0  0
  2  3  1  0  0  0  0
  3  4  1  0  0  0  0
  4 10  2  0  0  0  0
  4  5  1  0  0  0  0
  5  6  1  0  0  0  0
  6  7  1  0  0  0  0
  6 13  2  0  0  0  0
  7  8  2  0  0  0  0
  8  9  1  0  0  0  0
  8 10  1  0  0  0  0
 10 11  1  0  0  0  0
 11 12  3  0  0  0  0
 13 14  1  0  0  0  0
 14 15  2  0  0  0  0
 14 16  1  0  0  0  0
 16 17  1  0  0  0  0
 17 28  2  0  0  0  0
 17 18  1  0  0  0  0
 18 19  1  0  0  0  0
 18 21  2  0  0  0  0
 19 20  1  0  0  0  0
 21 22  1  0  0  0  0
 22 23  1  0  0  0  0
 22 27  2  0  0  0  0
 23 24  2  0  0  0  0
 23 25  2  0  0  0  0
 23 26  1  0  0  0  0
 27 28  1  0  0  0  0
 27 29  1  0  0  0  0
 29 30  1  0  0  0  0
  1 31  1  0  0  0  0
  1 32  1  0  0  0  0
  1 33  1  0  0  0  0
  2 34  1  0  0  0  0
  2 35  1  0  0  0  0
  5 36  1  0  0  0  0
  7 37  1  0  0  0  0
  9 38  1  0  0  0  0
  9 39  1  0  0  0  0
 16 40  1  0  0  0  0
 16 41  1  0  0  0  0
 20 42  1  0  0  0  0
 20 43  1  0  0  0  0
 20 44  1  0  0  0  0
 21 45  1  0  0  0  0
 26 46  1  0  0  0  0
 26 47  1  0  0  0  0
 26 48  1  0  0  0  0
 28 49  1  0  0  0  0
 30 50  1  0  0  0  0
 30 51  1  0  0  0  0
 30 52  1  0  0  0  0
M  END
> <i_m_stars>
0

> <r_user_dG.exp>
-10.093111

$$$$
18638-1
  -OEChem-05162309453D
 Structure written by MMmdl.
 52 53  0     0  0  0  0  0  0999 V2000
   24.0828   12.3868   30.2428 C   0  0  0  0  0  0  0  0  0  0  0  0
   23.3511   11.0608   30.4631 C   0  0  0  0  0  0  0  0  0  0  0  0
   22.2130   11.3224   31.2794 O   0  0  0  0  0  0  0  0  0  0  0  0
   21.4137   10.2724   31.6978 C   0  0  0  0  0  0  0  0  0  0  0  0
   21.7583    9.0214   31.2860 N   0  0  0  0  0  0  0  0  0  0  0  0
   20.9833    7.9917   31.6587 C   0  0  0  0  0  0  0  0  0  0  0  0
   19.8720    8.1371   32.4777 C   0  0  0  0  0  0  0  0  0  0  0  0
   19.5223    9.4096   32.8934 C   0  0  0  0  0  0  0  0  0  0  0  0
   18.3826    9.4917   33.6852 N   0  0  0  0  0  0  0  0  0  0  0  0
   20.2930   10.5154   32.4999 C   0  0  0  0  0  0  0  0  0  0  0  0
   19.9661   11.8857   32.8768 C   0  0  0  0  0  0  0  0  0  0  0  0
   19.7139   12.9766   33.1706 N   0  0  0  0  0  0  0  0  0  0  0  0
   21.4471    6.8094   31.1176 N   0  0  0  0  0  0  0  0  0  0  0  0
   20.8648    5.6102   31.0302 C   0  0  0  0  0  0  0  0  0  0  0  0
   19.7384    5.3480   31.4462 O   0  0  0  0  0  0  0  0  0  0  0  0
   21.6493    4.5406   30.2812 C   0  0  0  0  0  0  0  0  0  0  0  0
   23.0099    4.2326   30.8981 C   0  0  0  0  0  0  0  0  0  0  0  0
   24.1205    5.0418   30.6147 C   0  0  0  0  0  0  0  0  0  0  0  0
   23.9162    6.1432   29.8018 O   0  0  0  0  0  0  0  0  0  0  0  0
   24.9744    7.0761   29.5922 C   0  0  0  0  0  0  0  0  0  0  0  0
   25.3630    4.6931   31.1582 C   0  0  0  0  0  0  0  0  0  0  0  0
   25.4887    3.5794   31.9953 C   0  0  0  0  0  0  0  0  0  0  0  0
   27.1113    3.1594   32.6460 S   0  0  0  0  0  0  0  0  0  0  0  0
   28.0639    4.2094   32.2494 O   0  0  0  0  0  0  0  0  0  0  0  0
   26.9781    2.8102   34.0695 O   0  0  0  0  0  0  0  0  0  0  0  0
   27.5657    1.6315   31.7313 C   0  0  0  0  0  0  0  0  0  0  0  0
   24.3792    2.7781   32.2959 C   0  0  0  0  0  0  0  0  0  0  0  0
   23.1415    3.1205   31.7349 C   0  0  0  0  0  0  0  0  0  0  0  0
   24.5589    1.6919   33.1307 O   0  0  0  0  0  0  0  0  0  0  0  0
   23.5930    0.6441   33.1472 C   0  0  0  0  0  0  0  0  0  0  0  0
   24.9692   12.2170   29.6139 H   0  0  0  0  0  0  0  0  0  0  0  0
   23.4094   13.0983   29.7426 H   0  0  0  0  0  0  0  0  0  0  0  0
   24.3956   12.7985   31.2137 H   0  0  0  0  0  0  0  0  0  0  0  0
   23.0308   10.6450   29.4964 H   0  0  0  0  0  0  0  0  0  0  0  0
   24.0170   10.3452   30.9675 H   0  0  0  0  0  0  0  0  0  0  0  0
   22.5691    8.8736   30.7197 H   0  0  0  0  0  0  0  0  0  0  0  0
   19.2941    7.2774   32.7832 H   0  0  0  0  0  0  0  0  0  0  0  0
   18.1734   10.4347   33.9440 H   0  0  0  0  0  0  0  0  0  0  0  0
   19.5408    4.4351   31.2727 H   0  0  0  0  0  0  0  0  0  0  0  0
   21.0543    3.6154   30.2731 H   0  0  0  0  0  0  0  0  0  0  0  0
   21.8063    4.8846   29.2482 H   0  0  0  0  0  0  0  0  0  0  0  0
   24.6294    7.8786   28.9236 H   0  0  0  0  0  0  0  0  0  0  0  0
   25.2785    7.5082   30.5570 H   0  0  0  0  0  0  0  0  0  0  0  0
   25.8319    6.5610   29.1345 H   0  0  0  0  0  0  0  0  0  0  0  0
   26.2332    5.2901   30.9287 H   0  0  0  0  0  0  0  0  0  0  0  0
   28.5572    1.2874   32.0609 H   0  0  0  0  0  0  0  0  0  0  0  0
   26.8202    0.8482   31.9329 H   0  0  0  0  0  0  0  0  0  0  0  0
   27.5915    1.8442   30.6524 H   0  0  0  0  0  0  0  0  0  0  0  0
   22.2743    2.5148   31.9528 H   0  0  0  0  0  0  0  0  0  0  0  0
   23.9019   -0.1287   33.8665 H   0  0  0  0  0  0  0  0  0  0  0  0
   22.6153    1.0515   33.4442 H   0  0  0  0  0  0  0  0  0  0  0  0
   23.5159    0.2008   32.1434 H   0  0  0  0  0  0  0  0  0  0  0  0
  1  2  1  0  0  0  0
  2  3  1  0  0  0  0
  3  4  1  0  0  0  0
  4 10  2  0  0  0  0
  4  5  1  0  0  0  0
  5  6  1  0  0  0  0
  6  7  2  0  0  0  0
  6 13  1  0  0  0  0
  7  8  1  0  0  0  0
  8  9  2  0  0  0  0
  8 10  1  0  0  0  0
 10 11  1  0  0  0  0
 11 12  3  0  0  0  0
 13 14  2  0  0  0  0
 14 15  1  0  0  0  0
 14 16  1  0  0  0  0
 16 17  1  0  0  0  0
 17 28  2  0  0  0  0
 17 18  1  0  0  0  0
 18 19  1  0  0  0  0
 18 21  2  0  0  0  0
 19 20  1  0  0  0  0
 21 22  1  0  0  0  0
 22 23  1  0  0  0  0
 22 27  2  0  0  0  0
 23 24  2  0  0  0  0
 23 25  2  0  0  0  0
 23 26  1  0  0  0  0
 27 28  1  0  0  0  0
 27 29  1  0  0  0  0
 29 30  1  0  0  0  0
  1 31  1  0  0  0  0
  1 32  1  0  0  0  0
  1 33  1  0  0  0  0
  2 34  1  0  0  0  0
  2 35  1  0  0  0  0
  5 36  1  0  0  0  0
  7 37  1  0  0  0  0
  9 38  1  0  0  0  0
 15 39  1  0  0  0  0
 16 40  1  0  0  0  0
 16 41  1  0  0  0  0
 20 42  1  0  0  0  0
 20 43  1  0  0  0  0
 20 44  1  0  0  0  0
 21 45  1  0  0  0  0
 26 46  1  0  0  0  0
 26 47  1  0  0  0  0
 26 48  1  0  0  0  0
 28 49  1  0  0  0  0
 30 50  1  0  0  0  0
 30 51  1  0  0  0  0
 30 52  1  0  0  0  0
M  END
> <i_m_stars>
0

> <r_user_dG.exp>
-10.093111

$$$$
18638-1
  -OEChem-05162309453D
 Structure written by MMmdl.
 52 53  0     1  0  0  0  0  0999 V2000
   24.0828   12.3868   30.2428 C   0  0  0  0  0  0  0  0  0  0  0  0
   23.3511   11.0608   30.4631 C   0  0  0  0  0  0  0  0  0  0  0  0
   22.2130   11.3224   31.2794 O   0  0  0  0  0  0  0  0  0  0  0  0
   21.4137   10.2724   31.6978 C   0  0  0  0  0  0  0  0  0  0  0  0
   21.7583    9.0214   31.2860 N   0  0  0  0  0  0  0  0  0  0  0  0
   20.9833    7.9917   31.6587 C   0  0  0  0  0  0  0  0  0  0  0  0
   19.8720    8.1371   32.4777 C   0  0  0  0  0  0  0  0  0  0  0  0
   19.5223    9.4096   32.8934 C   0  0  0  0  0  0  0  0  0  0  0  0
   18.3826    9.4917   33.6852 N   0  0  0  0  0  0  0  0  0  0  0  0
   20.2930   10.5154   32.4999 C   0  0  3  0  0  0  0  0  0  0  0  0
   19.9661   11.8857   32.8768 C   0  0  0  0  0  0  0  0  0  0  0  0
   19.7139   12.9766   33.1706 N   0  0  0  0  0  0  0  0  0  0  0  0
   21.4471    6.8094   31.1176 N   0  0  0  0  0  0  0  0  0  0  0  0
   20.8648    5.6102   31.0302 C   0  0  0  0  0  0  0  0  0  0  0  0
   19.7384    5.3480   31.4462 O   0  0  0  0  0  0  0  0  0  0  0  0
   21.6493    4.5406   30.2812 C   0  0  0  0  0  0  0  0  0  0  0  0
   23.0099    4.2326   30.8981 C   0  0  0  0  0  0  0  0  0  0  0  0
   24.1205    5.0418   30.6147 C   0  0  0  0  0  0  0  0  0  0  0  0
   23.9162    6.1432   29.8018 O   0  0  0  0  0  0  0  0  0  0  0  0
   24.9744    7.0761   29.5922 C   0  0  0  0  0  0  0  0  0  0  0  0
   25.3630    4.6931   31.1582 C   0  0  0  0  0  0  0  0  0  0  0  0
   25.4887    3.5794   31.9953 C   0  0  0  0  0  0  0  0  0  0  0  0
   27.1113    3.1594   32.6460 S   0  0  0  0  0  0  0  0  0  0  0  0
   28.0639    4.2094   32.2494 O   0  0  0  0  0  0  0  0  0  0  0  0
   26.9781    2.8102   34.0695 O   0  0  0  0  0  0  0  0  0  0  0  0
   27.5657    1.6315   31.7313 C   0  0  0  0  0  0  0  0  0  0  0  0
   24.3792    2.7781   32.2959 C   0  0  0  0  0  0  0  0  0  0  0  0
   23.1415    3.1205   31.7349 C   0  0  0  0  0  0  0  0  0  0  0  0
   24.5589    1.6919   33.1307 O   0  0  0  0  0  0  0  0  0  0  0  0
   23.5930    0.6441   33.1472 C   0  0  0  0  0  0  0  0  0  0  0  0
   24.9692   12.2170   29.6139 H   0  0  0  0  0  0  0  0  0  0  0  0
   23.4094   13.0983   29.7426 H   0  0  0  0  0  0  0  0  0  0  0  0
   24.3956   12.7985   31.2137 H   0  0  0  0  0  0  0  0  0  0  0  0
   23.0308   10.6450   29.4964 H   0  0  0  0  0  0  0  0  0  0  0  0
   24.0170   10.3452   30.9675 H   0  0  0  0  0  0  0  0  0  0  0  0
   19.0102    7.7249   31.9324 H   0  0  0  0  0  0  0  0  0  0  0  0
   20.0542    7.5382   33.3822 H   0  0  0  0  0  0  0  0  0  0  0  0
   18.1734   10.4347   33.9440 H   0  0  0  0  0  0  0  0  0  0  0  0
   20.9119   10.4105   33.4032 H   0  0  0  0  0  0  0  0  0  0  0  0
   21.0543    3.6154   30.2731 H   0  0  0  0  0  0  0  0  0  0  0  0
   21.8063    4.8846   29.2482 H   0  0  0  0  0  0  0  0  0  0  0  0
   24.6294    7.8786   28.9236 H   0  0  0  0  0  0  0  0  0  0  0  0
   25.2785    7.5082   30.5570 H   0  0  0  0  0  0  0  0  0  0  0  0
   25.8319    6.5610   29.1345 H   0  0  0  0  0  0  0  0  0  0  0  0
   26.2332    5.2901   30.9287 H   0  0  0  0  0  0  0  0  0  0  0  0
   28.5572    1.2874   32.0609 H   0  0  0  0  0  0  0  0  0  0  0  0
   26.8202    0.8482   31.9329 H   0  0  0  0  0  0  0  0  0  0  0  0
   27.5915    1.8442   30.6524 H   0  0  0  0  0  0  0  0  0  0  0  0
   22.2743    2.5148   31.9528 H   0  0  0  0  0  0  0  0  0  0  0  0
   23.9019   -0.1287   33.8665 H   0  0  0  0  0  0  0  0  0  0  0  0
   22.6153    1.0515   33.4442 H   0  0  0  0  0  0  0  0  0  0  0  0
   23.5159    0.2008   32.1434 H   0  0  0  0  0  0  0  0  0  0  0  0
  1  2  1  0  0  0  0
  2  3  1  0  0  0  0
  3  4  1  0  0  0  0
  4 10  1  0  0  0  0
  4  5  2  0  0  0  0
  5  6  1  0  0  0  0
  6  7  1  0  0  0  0
  6 13  2  0  0  0  0
  7  8  1  0  0  0  0
  8  9  2  0  0  0  0
  8 10  1  0  0  0  0
 10 11  1  0  0  0  0
 11 12  3  0  0  0  0
 13 14  1  0  0  0  0
 14 15  2  0  0  0  0
 14 16  1  0  0  0  0
 16 17  1  0  0  0  0
 17 28  2  0  0  0  0
 17 18  1  0  0  0  0
 18 19  1  0  0  0  0
 18 21  2  0  0  0  0
 19 20  1  0  0  0  0
 21 22  1  0  0  0  0
 22 23  1  0  0  0  0
 22 27  2  0  0  0  0
 23 24  2  0  0  0  0
 23 25  2  0  0  0  0
 23 26  1  0  0  0  0
 27 28  1  0  0  0  0
 27 29  1  0  0  0  0
 29 30  1  0  0  0  0
  1 31  1  0  0  0  0
  1 32  1  0  0  0  0
  1 33  1  0  0  0  0
  2 34  1  0  0  0  0
  2 35  1  0  0  0  0
  7 36  1  0  0  0  0
  7 37  1  0  0  0  0
  9 38  1  0  0  0  0
 10 39  1  0  0  0  0
 16 40  1  0  0  0  0
 16 41  1  0  0  0  0
 20 42  1  0  0  0  0
 20 43  1  0  0  0  0
 20 44  1  0  0  0  0
 21 45  1  0  0  0  0
 26 46  1  0  0  0  0
 26 47  1  0  0  0  0
 26 48  1  0  0  0  0
 28 49  1  0  0  0  0
 30 50  1  0  0  0  0
 30 51  1  0  0  0  0
 30 52  1  0  0  0  0
M  END
> <i_m_stars>
0

> <r_user_dG.exp>
-10.093111

$$$$
18638-1
  -OEChem-05162309453D
 Structure written by MMmdl.
 52 53  0     1  0  0  0  0  0999 V2000
   24.0828   12.3868   30.2428 C   0  0  0  0  0  0  0  0  0  0  0  0
   23.3511   11.0608   30.4631 C   0  0  0  0  0  0  0  0  0  0  0  0
   22.2130   11.3224   31.2794 O   0  0  0  0  0  0  0  0  0  0  0  0
   21.4137   10.2724   31.6978 C   0  0  0  0  0  0  0  0  0  0  0  0
   21.7583    9.0214   31.2860 N   0  0  0  0  0  0  0  0  0  0  0  0
   20.9833    7.9917   31.6587 C   0  0  0  0  0  0  0  0  0  0  0  0
   19.8720    8.1371   32.4777 C   0  0  0  0  0  0  0  0  0  0  0  0
   19.5223    9.4096   32.8934 C   0  0  0  0  0  0  0  0  0  0  0  0
   18.3826    9.4917   33.6852 N   0  0  0  0  0  0  0  0  0  0  0  0
   20.2930   10.5154   32.4999 C   0  0  3  0  0  0  0  0  0  0  0  0
   19.9661   11.8857   32.8768 C   0  0  0  0  0  0  0  0  0  0  0  0
   19.7139   12.9766   33.1706 N   0  0  0  0  0  0  0  0  0  0  0  0
   21.4471    6.8094   31.1176 N   0  0  0  0  0  0  0  0  0  0  0  0
   20.8648    5.6102   31.0302 C   0  0  0  0  0  0  0  0  0  0  0  0
   19.7384    5.3480   31.4462 O   0  0  0  0  0  0  0  0  0  0  0  0
   21.6493    4.5406   30.2812 C   0  0  0  0  0  0  0  0  0  0  0  0
   23.0099    4.2326   30.8981 C   0  0  0  0  0  0  0  0  0  0  0  0
   24.1205    5.0418   30.6147 C   0  0  0  0  0  0  0  0  0  0  0  0
   23.9162    6.1432   29.8018 O   0  0  0  0  0  0  0  0  0  0  0  0
   24.9744    7.0761   29.5922 C   0  0  0  0  0  0  0  0  0  0  0  0
   25.3630    4.6931   31.1582 C   0  0  0  0  0  0  0  0  0  0  0  0
   25.4887    3.5794   31.9953 C   0  0  0  0  0  0  0  0  0  0  0  0
   27.1113    3.1594   32.6460 S   0  0  0  0  0  0  0  0  0  0  0  0
   28.0639    4.2094   32.2494 O   0  0  0  0  0  0  0  0  0  0  0  0
   26.9781    2.8102   34.0695 O   0  0  0  0  0  0  0  0  0  0  0  0
   27.5657    1.6315   31.7313 C   0  0  0  0  0  0  0  0  0  0  0  0
   24.3792    2.7781   32.2959 C   0  0  0  0  0  0  0  0  0  0  0  0
   23.1415    3.1205   31.7349 C   0  0  0  0  0  0  0  0  0  0  0  0
   24.5589    1.6919   33.1307 O   0  0  0  0  0  0  0  0  0  0  0  0
   23.5930    0.6441   33.1472 C   0  0  0  0  0  0  0  0  0  0  0  0
   24.9692   12.2170   29.6139 H   0  0  0  0  0  0  0  0  0  0  0  0
   23.4094   13.0983   29.7426 H   0  0  0  0  0  0  0  0  0  0  0  0
   24.3956   12.7985   31.2137 H   0  0  0  0  0  0  0  0  0  0  0  0
   23.0308   10.6450   29.4964 H   0  0  0  0  0  0  0  0  0  0  0  0
   24.0170   10.3452   30.9675 H   0  0  0  0  0  0  0  0  0  0  0  0
   19.2941    7.2774   32.7832 H   0  0  0  0  0  0  0  0  0  0  0  0
   18.1734   10.4347   33.9440 H   0  0  0  0  0  0  0  0  0  0  0  0
   20.9119   10.4105   33.4032 H   0  0  0  0  0  0  0  0  0  0  0  0
   22.3670    6.8585   30.7284 H   0  0  0  0  0  0  0  0  0  0  0  0
   21.0543    3.6154   30.2731 H   0  0  0  0  0  0  0  0  0  0  0  0
   21.8063    4.8846   29.2482 H   0  0  0  0  0  0  0  0  0  0  0  0
   24.6294    7.8786   28.9236 H   0  0  0  0  0  0  0  0  0  0  0  0
   25.2785    7.5082   30.5570 H   0  0  0  0  0  0  0  0  0  0  0  0
   25.8319    6.5610   29.1345 H   0  0  0  0  0  0  0  0  0  0  0  0
   26.2332    5.2901   30.9287 H   0  0  0  0  0  0  0  0  0  0  0  0
   28.5572    1.2874   32.0609 H   0  0  0  0  0  0  0  0  0  0  0  0
   26.8202    0.8482   31.9329 H   0  0  0  0  0  0  0  0  0  0  0  0
   27.5915    1.8442   30.6524 H   0  0  0  0  0  0  0  0  0  0  0  0
   22.2743    2.5148   31.9528 H   0  0  0  0  0  0  0  0  0  0  0  0
   23.9019   -0.1287   33.8665 H   0  0  0  0  0  0  0  0  0  0  0  0
   22.6153    1.0515   33.4442 H   0  0  0  0  0  0  0  0  0  0  0  0
   23.5159    0.2008   32.1434 H   0  0  0  0  0  0  0  0  0  0  0  0
  1  2  1  0  0  0  0
  2  3  1  0  0  0  0
  3  4  1  0  0  0  0
  4 10  1  0  0  0  0
  4  5  2  0  0  0  0
  5  6  1  0  0  0  0
  6  7  2  0  0  0  0
  6 13  1  0  0  0  0
  7  8  1  0  0  0  0
  8  9  2  0  0  0  0
  8 10  1  0  0  0  0
 10 11  1  0  0  0  0
 11 12  3  0  0  0  0
 13 14  1  0  0  0  0
 14 15  2  0  0  0  0
 14 16  1  0  0  0  0
 16 17  1  0  0  0  0
 17 28  2  0  0  0  0
 17 18  1  0  0  0  0
 18 19  1  0  0  0  0
 18 21  2  0  0  0  0
 19 20  1  0  0  0  0
 21 22  1  0  0  0  0
 22 23  1  0  0  0  0
 22 27  2  0  0  0  0
 23 24  2  0  0  0  0
 23 25  2  0  0  0  0
 23 26  1  0  0  0  0
 27 28  1  0  0  0  0
 27 29  1  0  0  0  0
 29 30  1  0  0  0  0
  1 31  1  0  0  0  0
  1 32  1  0  0  0  0
  1 33  1  0  0  0  0
  2 34  1  0  0  0  0
  2 35  1  0  0  0  0
  7 36  1  0  0  0  0
  9 37  1  0  0  0  0
 10 38  1  0  0  0  0
 13 39  1  0  0  0  0
 16 40  1  0  0  0  0
 16 41  1  0  0  0  0
 20 42  1  0  0  0  0
 20 43  1  0  0  0  0
 20 44  1  0  0  0  0
 21 45  1  0  0  0  0
 26 46  1  0  0  0  0
 26 47  1  0  0  0  0
 26 48  1  0  0  0  0
 28 49  1  0  0  0  0
 30 50  1  0  0  0  0
 30 51  1  0  0  0  0
 30 52  1  0  0  0  0
M  END
> <i_m_stars>
0

> <r_user_dG.exp>
-10.093111

$$$$
18638-1
  -OEChem-05162309453D
 Structure written by MMmdl.
 52 53  0     0  0  0  0  0  0999 V2000
   24.0828   12.3868   30.2428 C   0  0  0  0  0  0  0  0  0  0  0  0
   23.3511   11.0608   30.4631 C   0  0  0  0  0  0  0  0  0  0  0  0
   22.2130   11.3224   31.2794 O   0  0  0  0  0  0  0  0  0  0  0  0
   21.4137   10.2724   31.6978 C   0  0  0  0  0  0  0  0  0  0  0  0
   21.7583    9.0214   31.2860 N   0  0  0  0  0  0  0  0  0  0  0  0
   20.9833    7.9917   31.6587 C   0  0  0  0  0  0  0  0  0  0  0  0
   19.8720    8.1371   32.4777 C   0  0  0  0  0  0  0  0  0  0  0  0
   19.5223    9.4096   32.8934 C   0  0  0  0  0  0  0  0  0  0  0  0
   18.3826    9.4917   33.6852 N   0  0  0  0  0  0  0  0  0  0  0  0
   20.2930   10.5154   32.4999 C   0  0  0  0  0  0  0  0  0  0  0  0
   19.9661   11.8857   32.8768 C   0  0  0  0  0  0  0  0  0  0  0  0
   19.7139   12.9766   33.1706 N   0  0  0  0  0  0  0  0  0  0  0  0
   21.4471    6.8094   31.1176 N   0  0  0  0  0  0  0  0  0  0  0  0
   20.8648    5.6102   31.0302 C   0  0  0  0  0  0  0  0  0  0  0  0
   19.7384    5.3480   31.4462 O   0  0  0  0  0  0  0  0  0  0  0  0
   21.6493    4.5406   30.2812 C   0  0  0  0  0  0  0  0  0  0  0  0
   23.0099    4.2326   30.8981 C   0  0  0  0  0  0  0  0  0  0  0  0
   24.1205    5.0418   30.6147 C   0  0  0  0  0  0  0  0  0  0  0  0
   23.9162    6.1432   29.8018 O   0  0  0  0  0  0  0  0  0  0  0  0
   24.9744    7.0761   29.5922 C   0  0  0  0  0  0  0  0  0  0  0  0
   25.3630    4.6931   31.1582 C   0  0  0  0  0  0  0  0  0  0  0  0
   25.4887    3.5794   31.9953 C   0  0  0  0  0  0  0  0  0  0  0  0
   27.1113    3.1594   32.6460 S   0  0  0  0  0  0  0  0  0  0  0  0
   28.0639    4.2094   32.2494 O   0  0  0  0  0  0  0  0  0  0  0  0
   26.9781    2.8102   34.0695 O   0  0  0  0  0  0  0  0  0  0  0  0
   27.5657    1.6315   31.7313 C   0  0  0  0  0  0  0  0  0  0  0  0
   24.3792    2.7781   32.2959 C   0  0  0  0  0  0  0  0  0  0  0  0
   23.1415    3.1205   31.7349 C   0  0  0  0  0  0  0  0  0  0  0  0
   24.5589    1.6919   33.1307 O   0  0  0  0  0  0  0  0  0  0  0  0
   23.5930    0.6441   33.1472 C   0  0  0  0  0  0  0  0  0  0  0  0
   24.9692   12.2170   29.6139 H   0  0  0  0  0  0  0  0  0  0  0  0
   23.4094   13.0983   29.7426 H   0  0  0  0  0  0  0  0  0  0  0  0
   24.3956   12.7985   31.2137 H   0  0  0  0  0  0  0  0  0  0  0  0
   23.0308   10.6450   29.4964 H   0  0  0  0  0  0  0  0  0  0  0  0
   24.0170   10.3452   30.9675 H   0  0  0  0  0  0  0  0  0  0  0  0
   19.0102    7.7249   31.9324 H   0  0  0  0  0  0  0  0  0  0  0  0
   20.0542    7.5382   33.3822 H   0  0  0  0  0  0  0  0  0  0  0  0
   18.1734   10.4347   33.9440 H   0  0  0  0  0  0  0  0  0  0  0  0
   22.3670    6.8585   30.7284 H   0  0  0  0  0  0  0  0  0  0  0  0
   21.0543    3.6154   30.2731 H   0  0  0  0  0  0  0  0  0  0  0  0
   21.8063    4.8846   29.2482 H   0  0  0  0  0  0  0  0  0  0  0  0
   24.6294    7.8786   28.9236 H   0  0  0  0  0  0  0  0  0  0  0  0
   25.2785    7.5082   30.5570 H   0  0  0  0  0  0  0  0  0  0  0  0
   25.8319    6.5610   29.1345 H   0  0  0  0  0  0  0  0  0  0  0  0
   26.2332    5.2901   30.9287 H   0  0  0  0  0  0  0  0  0  0  0  0
   28.5572    1.2874   32.0609 H   0  0  0  0  0  0  0  0  0  0  0  0
   26.8202    0.8482   31.9329 H   0  0  0  0  0  0  0  0  0  0  0  0
   27.5915    1.8442   30.6524 H   0  0  0  0  0  0  0  0  0  0  0  0
   22.2743    2.5148   31.9528 H   0  0  0  0  0  0  0  0  0  0  0  0
   23.9019   -0.1287   33.8665 H   0  0  0  0  0  0  0  0  0  0  0  0
   22.6153    1.0515   33.4442 H   0  0  0  0  0  0  0  0  0  0  0  0
   23.5159    0.2008   32.1434 H   0  0  0  0  0  0  0  0  0  0  0  0
  1  2  1  0  0  0  0
  2  3  1  0  0  0  0
  3  4  1  0  0  0  0
  4 10  2  0  0  0  0
  4  5  1  0  0  0  0
  5  6  2  0  0  0  0
  6  7  1  0  0  0  0
  6 13  1  0  0  0  0
  7  8  1  0  0  0  0
  8  9  2  0  0  0  0
  8 10  1  0  0  0  0
 10 11  1  0  0  0  0
 11 12  3  0  0  0  0
 13 14  1  0  0  0  0
 14 15  2  0  0  0  0
 14 16  1  0  0  0  0
 16 17  1  0  0  0  0
 17 28  2  0  0  0  0
 17 18  1  0  0  0  0
 18 19  1  0  0  0  0
 18 21  2  0  0  0  0
 19 20  1  0  0  0  0
 21 22  1  0  0  0  0
 22 23  1  0  0  0  0
 22 27  2  0  0  0  0
 23 24  2  0  0  0  0
 23 25  2  0  0  0  0
 23 26  1  0  0  0  0
 27 28  1  0  0  0  0
 27 29  1  0  0  0  0
 29 30  1  0  0  0  0
  1 31  1  0  0  0  0
  1 32  1  0  0  0  0
  1 33  1  0  0  0  0
  2 34  1  0  0  0  0
  2 35  1  0  0  0  0
  7 36  1  0  0  0  0
  7 37  1  0  0  0  0
  9 38  1  0  0  0  0
 13 39  1  0  0  0  0
 16 40  1  0  0  0  0
 16 41  1  0  0  0  0
 20 42  1  0  0  0  0
 20 43  1  0  0  0  0
 20 44  1  0  0  0  0
 21 45  1  0  0  0  0
 26 46  1  0  0  0  0
 26 47  1  0  0  0  0
 26 48  1  0  0  0  0
 28 49  1  0  0  0  0
 30 50  1  0  0  0  0
 30 51  1  0  0  0  0
 30 52  1  0  0  0  0
M  END
> <i_m_stars>
0

> <r_user_dG.exp>
-10.093111

$$$$
18638-1
  -OEChem-05162309453D
 Structure written by MMmdl.
 52 53  0     1  0  0  0  0  0999 V2000
   24.0828   12.3868   30.2428 C   0  0  0  0  0  0  0  0  0  0  0  0
   23.3511   11.0608   30.4631 C   0  0  0  0  0  0  0  0  0  0  0  0
   22.2130   11.3224   31.2794 O   0  0  0  0  0  0  0  0  0  0  0  0
   21.4137   10.2724   31.6978 C   0  0  0  0  0  0  0  0  0  0  0  0
   21.7583    9.0214   31.2860 N   0  0  0  0  0  0  0  0  0  0  0  0
   20.9833    7.9917   31.6587 C   0  0  0  0  0  0  0  0  0  0  0  0
   19.8720    8.1371   32.4777 C   0  0  0  0  0  0  0  0  0  0  0  0
   19.5223    9.4096   32.8934 C   0  0  0  0  0  0  0  0  0  0  0  0
   18.3826    9.4917   33.6852 N   0  0  0  0  0  0  0  0  0  0  0  0
   20.2930   10.5154   32.4999 C   0  0  3  0  0  0  0  0  0  0  0  0
   19.9661   11.8857   32.8768 C   0  0  0  0  0  0  0  0  0  0  0  0
   19.7139   12.9766   33.1706 N   0  0  0  0  0  0  0  0  0  0  0  0
   21.4471    6.8094   31.1176 N   0  0  0  0  0  0  0  0  0  0  0  0
   20.8648    5.6102   31.0302 C   0  0  0  0  0  0  0  0  0  0  0  0
   19.7384    5.3480   31.4462 O   0  0  0  0  0  0  0  0  0  0  0  0
   21.6493    4.5406   30.2812 C   0  0  0  0  0  0  0  0  0  0  0  0
   23.0099    4.2326   30.8981 C   0  0  0  0  0  0  0  0  0  0  0  0
   24.1205    5.0418   30.6147 C   0  0  0  0  0  0  0  0  0  0  0  0
   23.9162    6.1432   29.8018 O   0  0  0  0  0  0  0  0  0  0  0  0
   24.9744    7.0761   29.5922 C   0  0  0  0  0  0  0  0  0  0  0  0
   25.3630    4.6931   31.1582 C   0  0  0  0  0  0  0  0  0  0  0  0
   25.4887    3.5794   31.9953 C   0  0  0  0  0  0  0  0  0  0  0  0
   27.1113    3.1594   32.6460 S   0  0  0  0  0  0  0  0  0  0  0  0
   28.0639    4.2094   32.2494 O   0  0  0  0  0  0  0  0  0  0  0  0
   26.9781    2.8102   34.0695 O   0  0  0  0  0  0  0  0  0  0  0  0
   27.5657    1.6315   31.7313 C   0  0  0  0  0  0  0  0  0  0  0  0
   24.3792    2.7781   32.2959 C   0  0  0  0  0  0  0  0  0  0  0  0
   23.1415    3.1205   31.7349 C   0  0  0  0  0  0  0  0  0  0  0  0
   24.5589    1.6919   33.1307 O   0  0  0  0  0  0  0  0  0  0  0  0
   23.5930    0.6441   33.1472 C   0  0  0  0  0  0  0  0  0  0  0  0
   24.9692   12.2170   29.6139 H   0  0  0  0  0  0  0  0  0  0  0  0
   23.4094   13.0983   29.7426 H   0  0  0  0  0  0  0  0  0  0  0  0
   24.3956   12.7985   31.2137 H   0  0  0  0  0  0  0  0  0  0  0  0
   23.0308   10.6450   29.4964 H   0  0  0  0  0  0  0  0  0  0  0  0
   24.0170   10.3452   30.9675 H   0  0  0  0  0  0  0  0  0  0  0  0
   19.2941    7.2774   32.7832 H   0  0  0  0  0  0  0  0  0  0  0  0
   18.2155   10.4463   33.9318 H   0  0  0  0  0  0  0  0  0  0  0  0
   17.5978    9.1365   33.1774 H   0  0  0  0  0  0  0  0  0  0  0  0
   20.9119   10.4105   33.4032 H   0  0  0  0  0  0  0  0  0  0  0  0
   21.0543    3.6154   30.2731 H   0  0  0  0  0  0  0  0  0  0  0  0
   21.8063    4.8846   29.2482 H   0  0  0  0  0  0  0  0  0  0  0  0
   24.6294    7.8786   28.9236 H   0  0  0  0  0  0  0  0  0  0  0  0
   25.2785    7.5082   30.5570 H   0  0  0  0  0  0  0  0  0  0  0  0
   25.8319    6.5610   29.1345 H   0  0  0  0  0  0  0  0  0  0  0  0
   26.2332    5.2901   30.9287 H   0  0  0  0  0  0  0  0  0  0  0  0
   28.5572    1.2874   32.0609 H   0  0  0  0  0  0  0  0  0  0  0  0
   26.8202    0.8482   31.9329 H   0  0  0  0  0  0  0  0  0  0  0  0
   27.5915    1.8442   30.6524 H   0  0  0  0  0  0  0  0  0  0  0  0
   22.2743    2.5148   31.9528 H   0  0  0  0  0  0  0  0  0  0  0  0
   23.9019   -0.1287   33.8665 H   0  0  0  0  0  0  0  0  0  0  0  0
   22.6153    1.0515   33.4442 H   0  0  0  0  0  0  0  0  0  0  0  0
   23.5159    0.2008   32.1434 H   0  0  0  0  0  0  0  0  0  0  0  0
  1  2  1  0  0  0  0
  2  3  1  0  0  0  0
  3  4  1  0  0  0  0
  4 10  1  0  0  0  0
  4  5  2  0  0  0  0
  5  6  1  0  0  0  0
  6  7  1  0  0  0  0
  6 13  2  0  0  0  0
  7  8  2  0  0  0  0
  8  9  1  0  0  0  0
  8 10  1  0  0  0  0
 10 11  1  0  0  0  0
 11 12  3  0  0  0  0
 13 14  1  0  0  0  0
 14 15  2  0  0  0  0
 14 16  1  0  0  0  0
 16 17  1  0  0  0  0
 17 28  2  0  0  0  0
 17 18  1  0  0  0  0
 18 19  1  0  0  0  0
 18 21  2  0  0  0  0
 19 20  1  0  0  0  0
 21 22  1  0  0  0  0
 22 23  1  0  0  0  0
 22 27  2  0  0  0  0
 23 24  2  0  0  0  0
 23 25  2  0  0  0  0
 23 26  1  0  0  0  0
 27 28  1  0  0  0  0
 27 29  1  0  0  0  0
 29 30  1  0  0  0  0
  1 31  1  0  0  0  0
  1 32  1  0  0  0  0
  1 33  1  0  0  0  0
  2 34  1  0  0  0  0
  2 35  1  0  0  0  0
  7 36  1  0  0  0  0
  9 37  1  0  0  0  0
  9 38  1  0  0  0  0
 10 39  1  0  0  0  0
 16 40  1  0  0  0  0
 16 41  1  0  0  0  0
 20 42  1  0  0  0  0
 20 43  1  0  0  0  0
 20 44  1  0  0  0  0
 21 45  1  0  0  0  0
 26 46  1  0  0  0  0
 26 47  1  0  0  0  0
 26 48  1  0  0  0  0
 28 49  1  0  0  0  0
 30 50  1  0  0  0  0
 30 51  1  0  0  0  0
 30 52  1  0  0  0  0
M  END
> <i_m_stars>
0

> <r_user_dG.exp>
-10.093111

$$$$
18638-1
  -OEChem-05162309453D
 Structure written by MMmdl.
 52 53  0     0  0  0  0  0  0999 V2000
   24.0828   12.3868   30.2428 C   0  0  0  0  0  0  0  0  0  0  0  0
   23.3511   11.0608   30.4631 C   0  0  0  0  0  0  0  0  0  0  0  0
   22.2130   11.3224   31.2794 O   0  0  0  0  0  0  0  0  0  0  0  0
   21.4137   10.2724   31.6978 C   0  0  0  0  0  0  0  0  0  0  0  0
   21.7583    9.0214   31.2860 N   0  0  0  0  0  0  0  0  0  0  0  0
   20.9833    7.9917   31.6587 C   0  0  0  0  0  0  0  0  0  0  0  0
   19.8720    8.1371   32.4777 C   0  0  0  0  0  0  0  0  0  0  0  0
   19.5223    9.4096   32.8934 C   0  0  0  0  0  0  0  0  0  0  0  0
   18.3826    9.4917   33.6852 N   0  0  0  0  0  0  0  0  0  0  0  0
   20.2930   10.5154   32.4999 C   0  0  0  0  0  0  0  0  0  0  0  0
   19.9661   11.8857   32.8768 C   0  0  0  0  0  0  0  0  0  0  0  0
   19.7139   12.9766   33.1706 N   0  0  0  0  0  0  0  0  0  0  0  0
   21.4471    6.8094   31.1176 N   0  0  0  0  0  0  0  0  0  0  0  0
   20.8648    5.6102   31.0302 C   0  0  0  0  0  0  0  0  0  0  0  0
   19.7384    5.3480   31.4462 O   0  0  0  0  0  0  0  0  0  0  0  0
   21.6493    4.5406   30.2812 C   0  0  0  0  0  0  0  0  0  0  0  0
   23.0099    4.2326   30.8981 C   0  0  0  0  0  0  0  0  0  0  0  0
   24.1205    5.0418   30.6147 C   0  0  0  0  0  0  0  0  0  0  0  0
   23.9162    6.1432   29.8018 O   0  0  0  0  0  0  0  0  0  0  0  0
   24.9744    7.0761   29.5922 C   0  0  0  0  0  0  0  0  0  0  0  0
   25.3630    4.6931   31.1582 C   0  0  0  0  0  0  0  0  0  0  0  0
   25.4887    3.5794   31.9953 C   0  0  0  0  0  0  0  0  0  0  0  0
   27.1113    3.1594   32.6460 S   0  0  0  0  0  0  0  0  0  0  0  0
   28.0639    4.2094   32.2494 O   0  0  0  0  0  0  0  0  0  0  0  0
   26.9781    2.8102   34.0695 O   0  0  0  0  0  0  0  0  0  0  0  0
   27.5657    1.6315   31.7313 C   0  0  0  0  0  0  0  0  0  0  0  0
   24.3792    2.7781   32.2959 C   0  0  0  0  0  0  0  0  0  0  0  0
   23.1415    3.1205   31.7349 C   0  0  0  0  0  0  0  0  0  0  0  0
   24.5589    1.6919   33.1307 O   0  0  0  0  0  0  0  0  0  0  0  0
   23.5930    0.6441   33.1472 C   0  0  0  0  0  0  0  0  0  0  0  0
   24.9692   12.2170   29.6139 H   0  0  0  0  0  0  0  0  0  0  0  0
   23.4094   13.0983   29.7426 H   0  0  0  0  0  0  0  0  0  0  0  0
   24.3956   12.7985   31.2137 H   0  0  0  0  0  0  0  0  0  0  0  0
   23.0308   10.6450   29.4964 H   0  0  0  0  0  0  0  0  0  0  0  0
   24.0170   10.3452   30.9675 H   0  0  0  0  0  0  0  0  0  0  0  0
   19.0102    7.7249   31.9324 H   0  0  0  0  0  0  0  0  0  0  0  0
   20.0542    7.5382   33.3822 H   0  0  0  0  0  0  0  0  0  0  0  0
   18.2155   10.4463   33.9318 H   0  0  0  0  0  0  0  0  0  0  0  0
   17.5978    9.1365   33.1774 H   0  0  0  0  0  0  0  0  0  0  0  0
   21.0543    3.6154   30.2731 H   0  0  0  0  0  0  0  0  0  0  0  0
   21.8063    4.8846   29.2482 H   0  0  0  0  0  0  0  0  0  0  0  0
   24.6294    7.8786   28.9236 H   0  0  0  0  0  0  0  0  0  0  0  0
   25.2785    7.5082   30.5570 H   0  0  0  0  0  0  0  0  0  0  0  0
   25.8319    6.5610   29.1345 H   0  0  0  0  0  0  0  0  0  0  0  0
   26.2332    5.2901   30.9287 H   0  0  0  0  0  0  0  0  0  0  0  0
   28.5572    1.2874   32.0609 H   0  0  0  0  0  0  0  0  0  0  0  0
   26.8202    0.8482   31.9329 H   0  0  0  0  0  0  0  0  0  0  0  0
   27.5915    1.8442   30.6524 H   0  0  0  0  0  0  0  0  0  0  0  0
   22.2743    2.5148   31.9528 H   0  0  0  0  0  0  0  0  0  0  0  0
   23.9019   -0.1287   33.8665 H   0  0  0  0  0  0  0  0  0  0  0  0
   22.6153    1.0515   33.4442 H   0  0  0  0  0  0  0  0  0  0  0  0
   23.5159    0.2008   32.1434 H   0  0  0  0  0  0  0  0  0  0  0  0
  1  2  1  0  0  0  0
  2  3  1  0  0  0  0
  3  4  1  0  0  0  0
  4 10  1  0  0  0  0
  4  5  2  0  0  0  0
  5  6  1  0  0  0  0
  6  7  1  0  0  0  0
  6 13  2  0  0  0  0
  7  8  1  0  0  0  0
  8  9  1  0  0  0  0
  8 10  2  0  0  0  0
 10 11  1  0  0  0  0
 11 12  3  0  0  0  0
 13 14  1  0  0  0  0
 14 15  2  0  0  0  0
 14 16  1  0  0  0  0
 16 17  1  0  0  0  0
 17 28  2  0  0  0  0
 17 18  1  0  0  0  0
 18 19  1  0  0  0  0
 18 21  2  0  0  0  0
 19 20  1  0  0  0  0
 21 22  1  0  0  0  0
 22 23  1  0  0  0  0
 22 27  2  0  0  0  0
 23 24  2  0  0  0  0
 23 25  2  0  0  0  0
 23 26  1  0  0  0  0
 27 28  1  0  0  0  0
 27 29  1  0  0  0  0
 29 30  1  0  0  0  0
  1 31  1  0  0  0  0
  1 32  1  0  0  0  0
  1 33  1  0  0  0  0
  2 34  1  0  0  0  0
  2 35  1  0  0  0  0
  7 36  1  0  0  0  0
  7 37  1  0  0  0  0
  9 38  1  0  0  0  0
  9 39  1  0  0  0  0
 16 40  1  0  0  0  0
 16 41  1  0  0  0  0
 20 42  1  0  0  0  0
 20 43  1  0  0  0  0
 20 44  1  0  0  0  0
 21 45  1  0  0  0  0
 26 46  1  0  0  0  0
 26 47  1  0  0  0  0
 26 48  1  0  0  0  0
 28 49  1  0  0  0  0
 30 50  1  0  0  0  0
 30 51  1  0  0  0  0
 30 52  1  0  0  0  0
M  END
> <i_m_stars>
0

> <r_user_dG.exp>
-10.093111

$$$$
18638-1
  -OEChem-05162309453D
 Structure written by MMmdl.
 52 53  0     0  0  0  0  0  0999 V2000
   24.0828   12.3868   30.2428 C   0  0  0  0  0  0  0  0  0  0  0  0
   23.3511   11.0608   30.4631 C   0  0  0  0  0  0  0  0  0  0  0  0
   22.2130   11.3224   31.2794 O   0  0  0  0  0  0  0  0  0  0  0  0
   21.4137   10.2724   31.6978 C   0  0  0  0  0  0  0  0  0  0  0  0
   21.7583    9.0214   31.2860 N   0  0  0  0  0  0  0  0  0  0  0  0
   20.9833    7.9917   31.6587 C   0  0  0  0  0  0  0  0  0  0  0  0
   19.8720    8.1371   32.4777 C   0  0  0  0  0  0  0  0  0  0  0  0
   19.5223    9.4096   32.8934 C   0  0  0  0  0  0  0  0  0  0  0  0
   18.3826    9.4917   33.6852 N   0  0  0  0  0  0  0  0  0  0  0  0
   20.2930   10.5154   32.4999 C   0  0  0  0  0  0  0  0  0  0  0  0
   19.9661   11.8857   32.8768 C   0  0  0  0  0  0  0  0  0  0  0  0
   19.7139   12.9766   33.1706 N   0  0  0  0  0  0  0  0  0  0  0  0
   21.4471    6.8094   31.1176 N   0  0  0  0  0  0  0  0  0  0  0  0
   20.8648    5.6102   31.0302 C   0  0  0  0  0  0  0  0  0  0  0  0
   19.7384    5.3480   31.4462 O   0  0  0  0  0  0  0  0  0  0  0  0
   21.6493    4.5406   30.2812 C   0  0  0  0  0  0  0  0  0  0  0  0
   23.0099    4.2326   30.8981 C   0  0  0  0  0  0  0  0  0  0  0  0
   24.1205    5.0418   30.6147 C   0  0  0  0  0  0  0  0  0  0  0  0
   23.9162    6.1432   29.8018 O   0  0  0  0  0  0  0  0  0  0  0  0
   24.9744    7.0761   29.5922 C   0  0  0  0  0  0  0  0  0  0  0  0
   25.3630    4.6931   31.1582 C   0  0  0  0  0  0  0  0  0  0  0  0
   25.4887    3.5794   31.9953 C   0  0  0  0  0  0  0  0  0  0  0  0
   27.1113    3.1594   32.6460 S   0  0  0  0  0  0  0  0  0  0  0  0
   28.0639    4.2094   32.2494 O   0  0  0  0  0  0  0  0  0  0  0  0
   26.9781    2.8102   34.0695 O   0  0  0  0  0  0  0  0  0  0  0  0
   27.5657    1.6315   31.7313 C   0  0  0  0  0  0  0  0  0  0  0  0
   24.3792    2.7781   32.2959 C   0  0  0  0  0  0  0  0  0  0  0  0
   23.1415    3.1205   31.7349 C   0  0  0  0  0  0  0  0  0  0  0  0
   24.5589    1.6919   33.1307 O   0  0  0  0  0  0  0  0  0  0  0  0
   23.5930    0.6441   33.1472 C   0  0  0  0  0  0  0  0  0  0  0  0
   24.9692   12.2170   29.6139 H   0  0  0  0  0  0  0  0  0  0  0  0
   23.4094   13.0983   29.7426 H   0  0  0  0  0  0  0  0  0  0  0  0
   24.3956   12.7985   31.2137 H   0  0  0  0  0  0  0  0  0  0  0  0
   23.0308   10.6450   29.4964 H   0  0  0  0  0  0  0  0  0  0  0  0
   24.0170   10.3452   30.9675 H   0  0  0  0  0  0  0  0  0  0  0  0
   22.5691    8.8736   30.7197 H   0  0  0  0  0  0  0  0  0  0  0  0
   19.0102    7.7249   31.9324 H   0  0  0  0  0  0  0  0  0  0  0  0
   20.0542    7.5382   33.3822 H   0  0  0  0  0  0  0  0  0  0  0  0
   18.1734   10.4347   33.9440 H   0  0  0  0  0  0  0  0  0  0  0  0
   21.0543    3.6154   30.2731 H   0  0  0  0  0  0  0  0  0  0  0  0
   21.8063    4.8846   29.2482 H   0  0  0  0  0  0  0  0  0  0  0  0
   24.6294    7.8786   28.9236 H   0  0  0  0  0  0  0  0  0  0  0  0
   25.2785    7.5082   30.5570 H   0  0  0  0  0  0  0  0  0  0  0  0
   25.8319    6.5610   29.1345 H   0  0  0  0  0  0  0  0  0  0  0  0
   26.2332    5.2901   30.9287 H   0  0  0  0  0  0  0  0  0  0  0  0
   28.5572    1.2874   32.0609 H   0  0  0  0  0  0  0  0  0  0  0  0
   26.8202    0.8482   31.9329 H   0  0  0  0  0  0  0  0  0  0  0  0
   27.5915    1.8442   30.6524 H   0  0  0  0  0  0  0  0  0  0  0  0
   22.2743    2.5148   31.9528 H   0  0  0  0  0  0  0  0  0  0  0  0
   23.9019   -0.1287   33.8665 H   0  0  0  0  0  0  0  0  0  0  0  0
   22.6153    1.0515   33.4442 H   0  0  0  0  0  0  0  0  0  0  0  0
   23.5159    0.2008   32.1434 H   0  0  0  0  0  0  0  0  0  0  0  0
  1  2  1  0  0  0  0
  2  3  1  0  0  0  0
  3  4  1  0  0  0  0
  4 10  2  0  0  0  0
  4  5  1  0  0  0  0
  5  6  1  0  0  0  0
  6  7  1  0  0  0  0
  6 13  2  0  0  0  0
  7  8  1  0  0  0  0
  8  9  2  0  0  0  0
  8 10  1  0  0  0  0
 10 11  1  0  0  0  0
 11 12  3  0  0  0  0
 13 14  1  0  0  0  0
 14 15  2  0  0  0  0
 14 16  1  0  0  0  0
 16 17  1  0  0  0  0
 17 28  2  0  0  0  0
 17 18  1  0  0  0  0
 18 19  1  0  0  0  0
 18 21  2  0  0  0  0
 19 20  1  0  0  0  0
 21 22  1  0  0  0  0
 22 23  1  0  0  0  0
 22 27  2  0  0  0  0
 23 24  2  0  0  0  0
 23 25  2  0  0  0  0
 23 26  1  0  0  0  0
 27 28  1  0  0  0  0
 27 29  1  0  0  0  0
 29 30  1  0  0  0  0
  1 31  1  0  0  0  0
  1 32  1  0  0  0  0
  1 33  1  0  0  0  0
  2 34  1  0  0  0  0
  2 35  1  0  0  0  0
  5 36  1  0  0  0  0
  7 37  1  0  0  0  0
  7 38  1  0  0  0  0
  9 39  1  0  0  0  0
 16 40  1  0  0  0  0
 16 41  1  0  0  0  0
 20 42  1  0  0  0  0
 20 43  1  0  0  0  0
 20 44  1  0  0  0  0
 21 45  1  0  0  0  0
 26 46  1  0  0  0  0
 26 47  1  0  0  0  0
 26 48  1  0  0  0  0
 28 49  1  0  0  0  0
 30 50  1  0  0  0  0
 30 51  1  0  0  0  0
 30 52  1  0  0  0  0
M  END
> <i_m_stars>
0

> <r_user_dG.exp>
-10.093111

$$$$
18638-1
  -OEChem-05162309453D
 Structure written by MMmdl.
 52 53  0     1  0  0  0  0  0999 V2000
   24.0828   12.3868   30.2428 C   0  0  0  0  0  0  0  0  0  0  0  0
   23.3511   11.0608   30.4631 C   0  0  0  0  0  0  0  0  0  0  0  0
   22.2130   11.3224   31.2794 O   0  0  0  0  0  0  0  0  0  0  0  0
   21.4137   10.2724   31.6978 C   0  0  0  0  0  0  0  0  0  0  0  0
   21.7583    9.0214   31.2860 N   0  0  0  0  0  0  0  0  0  0  0  0
   20.9833    7.9917   31.6587 C   0  0  0  0  0  0  0  0  0  0  0  0
   19.8720    8.1371   32.4777 C   0  0  0  0  0  0  0  0  0  0  0  0
   19.5223    9.4096   32.8934 C   0  0  0  0  0  0  0  0  0  0  0  0
   18.3826    9.4917   33.6852 N   0  0  0  0  0  0  0  0  0  0  0  0
   20.2930   10.5154   32.4999 C   0  0  3  0  0  0  0  0  0  0  0  0
   19.9661   11.8857   32.8768 C   0  0  0  0  0  0  0  0  0  0  0  0
   19.7139   12.9766   33.1706 N   0  0  0  0  0  0  0  0  0  0  0  0
   21.4471    6.8094   31.1176 N   0  0  0  0  0  0  0  0  0  0  0  0
   20.8648    5.6102   31.0302 C   0  0  0  0  0  0  0  0  0  0  0  0
   19.7384    5.3480   31.4462 O   0  0  0  0  0  0  0  0  0  0  0  0
   21.6493    4.5406   30.2812 C   0  0  0  0  0  0  0  0  0  0  0  0
   23.0099    4.2326   30.8981 C   0  0  0  0  0  0  0  0  0  0  0  0
   24.1205    5.0418   30.6147 C   0  0  0  0  0  0  0  0  0  0  0  0
   23.9162    6.1432   29.8018 O   0  0  0  0  0  0  0  0  0  0  0  0
   24.9744    7.0761   29.5922 C   0  0  0  0  0  0  0  0  0  0  0  0
   25.3630    4.6931   31.1582 C   0  0  0  0  0  0  0  0  0  0  0  0
   25.4887    3.5794   31.9953 C   0  0  0  0  0  0  0  0  0  0  0  0
   27.1113    3.1594   32.6460 S   0  0  0  0  0  0  0  0  0  0  0  0
   28.0639    4.2094   32.2494 O   0  0  0  0  0  0  0  0  0  0  0  0
   26.9781    2.8102   34.0695 O   0  0  0  0  0  0  0  0  0  0  0  0
   27.5657    1.6315   31.7313 C   0  0  0  0  0  0  0  0  0  0  0  0
   24.3792    2.7781   32.2959 C   0  0  0  0  0  0  0  0  0  0  0  0
   23.1415    3.1205   31.7349 C   0  0  0  0  0  0  0  0  0  0  0  0
   24.5589    1.6919   33.1307 O   0  0  0  0  0  0  0  0  0  0  0  0
   23.5930    0.6441   33.1472 C   0  0  0  0  0  0  0  0  0  0  0  0
   24.9692   12.2170   29.6139 H   0  0  0  0  0  0  0  0  0  0  0  0
   23.4094   13.0983   29.7426 H   0  0  0  0  0  0  0  0  0  0  0  0
   24.3956   12.7985   31.2137 H   0  0  0  0  0  0  0  0  0  0  0  0
   23.0308   10.6450   29.4964 H   0  0  0  0  0  0  0  0  0  0  0  0
   24.0170   10.3452   30.9675 H   0  0  0  0  0  0  0  0  0  0  0  0
   19.2941    7.2774   32.7832 H   0  0  0  0  0  0  0  0  0  0  0  0
   18.1734   10.4347   33.9440 H   0  0  0  0  0  0  0  0  0  0  0  0
   20.9119   10.4105   33.4032 H   0  0  0  0  0  0  0  0  0  0  0  0
   19.5408    4.4351   31.2727 H   0  0  0  0  0  0  0  0  0  0  0  0
   21.0543    3.6154   30.2731 H   0  0  0  0  0  0  0  0  0  0  0  0
   21.8063    4.8846   29.2482 H   0  0  0  0  0  0  0  0  0  0  0  0
   24.6294    7.8786   28.9236 H   0  0  0  0  0  0  0  0  0  0  0  0
   25.2785    7.5082   30.5570 H   0  0  0  0  0  0  0  0  0  0  0  0
   25.8319    6.5610   29.1345 H   0  0  0  0  0  0  0  0  0  0  0  0
   26.2332    5.2901   30.9287 H   0  0  0  0  0  0  0  0  0  0  0  0
   28.5572    1.2874   32.0609 H   0  0  0  0  0  0  0  0  0  0  0  0
   26.8202    0.8482   31.9329 H   0  0  0  0  0  0  0  0  0  0  0  0
   27.5915    1.8442   30.6524 H   0  0  0  0  0  0  0  0  0  0  0  0
   22.2743    2.5148   31.9528 H   0  0  0  0  0  0  0  0  0  0  0  0
   23.9019   -0.1287   33.8665 H   0  0  0  0  0  0  0  0  0  0  0  0
   22.6153    1.0515   33.4442 H   0  0  0  0  0  0  0  0  0  0  0  0
   23.5159    0.2008   32.1434 H   0  0  0  0  0  0  0  0  0  0  0  0
  1  2  1  0  0  0  0
  2  3  1  0  0  0  0
  3  4  1  0  0  0  0
  4 10  1  0  0  0  0
  4  5  2  0  0  0  0
  5  6  1  0  0  0  0
  6  7  2  0  0  0  0
  6 13  1  0  0  0  0
  7  8  1  0  0  0  0
  8  9  2  0  0  0  0
  8 10  1  0  0  0  0
 10 11  1  0  0  0  0
 11 12  3  0  0  0  0
 13 14  2  0  0  0  0
 14 15  1  0  0  0  0
 14 16  1  0  0  0  0
 16 17  1  0  0  0  0
 17 28  2  0  0  0  0
 17 18  1  0  0  0  0
 18 19  1  0  0  0  0
 18 21  2  0  0  0  0
 19 20  1  0  0  0  0
 21 22  1  0  0  0  0
 22 23  1  0  0  0  0
 22 27  2  0  0  0  0
 23 24  2  0  0  0  0
 23 25  2  0  0  0  0
 23 26  1  0  0  0  0
 27 28  1  0  0  0  0
 27 29  1  0  0  0  0
 29 30  1  0  0  0  0
  1 31  1  0  0  0  0
  1 32  1  0  0  0  0
  1 33  1  0  0  0  0
  2 34  1  0  0  0  0
  2 35  1  0  0  0  0
  7 36  1  0  0  0  0
  9 37  1  0  0  0  0
 10 38  1  0  0  0  0
 15 39  1  0  0  0  0
 16 40  1  0  0  0  0
 16 41  1  0  0  0  0
 20 42  1  0  0  0  0
 20 43  1  0  0  0  0
 20 44  1  0  0  0  0
 21 45  1  0  0  0  0
 26 46  1  0  0  0  0
 26 47  1  0  0  0  0
 26 48  1  0  0  0  0
 28 49  1  0  0  0  0
 30 50  1  0  0  0  0
 30 51  1  0  0  0  0
 30 52  1  0  0  0  0
M  END
> <i_m_stars>
0

> <r_user_dG.exp>
-10.093111

$$$$
18638-1
  -OEChem-05162309453D
 Structure written by MMmdl.
 52 53  0     0  0  0  0  0  0999 V2000
   24.0828   12.3868   30.2428 C   0  0  0  0  0  0  0  0  0  0  0  0
   23.3511   11.0608   30.4631 C   0  0  0  0  0  0  0  0  0  0  0  0
   22.2130   11.3224   31.2794 O   0  0  0  0  0  0  0  0  0  0  0  0
   21.4137   10.2724   31.6978 C   0  0  0  0  0  0  0  0  0  0  0  0
   21.7583    9.0214   31.2860 N   0  0  0  0  0  0  0  0  0  0  0  0
   20.9833    7.9917   31.6587 C   0  0  0  0  0  0  0  0  0  0  0  0
   19.8720    8.1371   32.4777 C   0  0  0  0  0  0  0  0  0  0  0  0
   19.5223    9.4096   32.8934 C   0  0  0  0  0  0  0  0  0  0  0  0
   18.3826    9.4917   33.6852 N   0  0  0  0  0  0  0  0  0  0  0  0
   20.2930   10.5154   32.4999 C   0  0  0  0  0  0  0  0  0  0  0  0
   19.9661   11.8857   32.8768 C   0  0  0  0  0  0  0  0  0  0  0  0
   19.7139   12.9766   33.1706 N   0  0  0  0  0  0  0  0  0  0  0  0
   21.4471    6.8094   31.1176 N   0  0  0  0  0  0  0  0  0  0  0  0
   20.8648    5.6102   31.0302 C   0  0  0  0  0  0  0  0  0  0  0  0
   19.7384    5.3480   31.4462 O   0  0  0  0  0  0  0  0  0  0  0  0
   21.6493    4.5406   30.2812 C   0  0  0  0  0  0  0  0  0  0  0  0
   23.0099    4.2326   30.8981 C   0  0  0  0  0  0  0  0  0  0  0  0
   24.1205    5.0418   30.6147 C   0  0  0  0  0  0  0  0  0  0  0  0
   23.9162    6.1432   29.8018 O   0  0  0  0  0  0  0  0  0  0  0  0
   24.9744    7.0761   29.5922 C   0  0  0  0  0  0  0  0  0  0  0  0
   25.3630    4.6931   31.1582 C   0  0  0  0  0  0  0  0  0  0  0  0
   25.4887    3.5794   31.9953 C   0  0  0  0  0  0  0  0  0  0  0  0
   27.1113    3.1594   32.6460 S   0  0  0  0  0  0  0  0  0  0  0  0
   28.0639    4.2094   32.2494 O   0  0  0  0  0  0  0  0  0  0  0  0
   26.9781    2.8102   34.0695 O   0  0  0  0  0  0  0  0  0  0  0  0
   27.5657    1.6315   31.7313 C   0  0  0  0  0  0  0  0  0  0  0  0
   24.3792    2.7781   32.2959 C   0  0  0  0  0  0  0  0  0  0  0  0
   23.1415    3.1205   31.7349 C   0  0  0  0  0  0  0  0  0  0  0  0
   24.5589    1.6919   33.1307 O   0  0  0  0  0  0  0  0  0  0  0  0
   23.5930    0.6441   33.1472 C   0  0  0  0  0  0  0  0  0  0  0  0
   24.9692   12.2170   29.6139 H   0  0  0  0  0  0  0  0  0  0  0  0
   23.4094   13.0983   29.7426 H   0  0  0  0  0  0  0  0  0  0  0  0
   24.3956   12.7985   31.2137 H   0  0  0  0  0  0  0  0  0  0  0  0
   23.0308   10.6450   29.4964 H   0  0  0  0  0  0  0  0  0  0  0  0
   24.0170   10.3452   30.9675 H   0  0  0  0  0  0  0  0  0  0  0  0
   19.0102    7.7249   31.9324 H   0  0  0  0  0  0  0  0  0  0  0  0
   20.0542    7.5382   33.3822 H   0  0  0  0  0  0  0  0  0  0  0  0
   18.1734   10.4347   33.9440 H   0  0  0  0  0  0  0  0  0  0  0  0
   19.5408    4.4351   31.2727 H   0  0  0  0  0  0  0  0  0  0  0  0
   21.0543    3.6154   30.2731 H   0  0  0  0  0  0  0  0  0  0  0  0
   21.8063    4.8846   29.2482 H   0  0  0  0  0  0  0  0  0  0  0  0
   24.6294    7.8786   28.9236 H   0  0  0  0  0  0  0  0  0  0  0  0
   25.2785    7.5082   30.5570 H   0  0  0  0  0  0  0  0  0  0  0  0
   25.8319    6.5610   29.1345 H   0  0  0  0  0  0  0  0  0  0  0  0
   26.2332    5.2901   30.9287 H   0  0  0  0  0  0  0  0  0  0  0  0
   28.5572    1.2874   32.0609 H   0  0  0  0  0  0  0  0  0  0  0  0
   26.8202    0.8482   31.9329 H   0  0  0  0  0  0  0  0  0  0  0  0
   27.5915    1.8442   30.6524 H   0  0  0  0  0  0  0  0  0  0  0  0
   22.2743    2.5148   31.9528 H   0  0  0  0  0  0  0  0  0  0  0  0
   23.9019   -0.1287   33.8665 H   0  0  0  0  0  0  0  0  0  0  0  0
   22.6153    1.0515   33.4442 H   0  0  0  0  0  0  0  0  0  0  0  0
   23.5159    0.2008   32.1434 H   0  0  0  0  0  0  0  0  0  0  0  0
  1  2  1  0  0  0  0
  2  3  1  0  0  0  0
  3  4  1  0  0  0  0
  4 10  2  0  0  0  0
  4  5  1  0  0  0  0
  5  6  2  0  0  0  0
  6  7  1  0  0  0  0
  6 13  1  0  0  0  0
  7  8  1  0  0  0  0
  8  9  2  0  0  0  0
  8 10  1  0  0  0  0
 10 11  1  0  0  0  0
 11 12  3  0  0  0  0
 13 14  2  0  0  0  0
 14 15  1  0  0  0  0
 14 16  1  0  0  0  0
 16 17  1  0  0  0  0
 17 28  2  0  0  0  0
 17 18  1  0  0  0  0
 18 19  1  0  0  0  0
 18 21  2  0  0  0  0
 19 20  1  0  0  0  0
 21 22  1  0  0  0  0
 22 23  1  0  0  0  0
 22 27  2  0  0  0  0
 23 24  2  0  0  0  0
 23 25  2  0  0  0  0
 23 26  1  0  0  0  0
 27 28  1  0  0  0  0
 27 29  1  0  0  0  0
 29 30  1  0  0  0  0
  1 31  1  0  0  0  0
  1 32  1  0  0  0  0
  1 33  1  0  0  0  0
  2 34  1  0  0  0  0
  2 35  1  0  0  0  0
  7 36  1  0  0  0  0
  7 37  1  0  0  0  0
  9 38  1  0  0  0  0
 15 39  1  0  0  0  0
 16 40  1  0  0  0  0
 16 41  1  0  0  0  0
 20 42  1  0  0  0  0
 20 43  1  0  0  0  0
 20 44  1  0  0  0  0
 21 45  1  0  0  0  0
 26 46  1  0  0  0  0
 26 47  1  0  0  0  0
 26 48  1  0  0  0  0
 28 49  1  0  0  0  0
 30 50  1  0  0  0  0
 30 51  1  0  0  0  0
 30 52  1  0  0  0  0
M  END
> <i_m_stars>
0

> <r_user_dG.exp>
-10.093111

$$$$
