18635-1
  -OEChem-05192314073D
 Structure written by MMmdl.
 44 45  0     0  0  0  0  0  0999 V2000
   23.9496   12.4061   30.2951 C   0  0  0  0  0  0  0  0  0  0  0  0
   23.2519   11.0659   30.5395 C   0  0  0  0  0  0  0  0  0  0  0  0
   22.1059   11.3120   31.3507 O   0  0  0  0  0  0  0  0  0  0  0  0
   21.3257   10.2498   31.7750 C   0  0  0  0  0  0  0  0  0  0  0  0
   21.7076    9.0020   31.3906 N   0  0  0  0  0  0  0  0  0  0  0  0
   20.9482    7.9622   31.7631 C   0  0  0  0  0  0  0  0  0  0  0  0
   19.8115    8.0884   32.5458 C   0  0  0  0  0  0  0  0  0  0  0  0
   19.4246    9.3586   32.9354 C   0  0  0  0  0  0  0  0  0  0  0  0
   18.2605    9.4247   33.6906 N   0  0  0  0  0  0  0  0  0  0  0  0
   20.1835   10.4770   32.5507 C   0  0  0  0  0  0  0  0  0  0  0  0
   19.8271   11.8457   32.9062 C   0  0  0  0  0  0  0  0  0  0  0  0
   19.5534   12.9361   33.1819 N   0  0  0  0  0  0  0  0  0  0  0  0
   21.4602    6.7905   31.2552 N   0  0  0  0  0  0  0  0  0  0  0  0
   20.8690    5.6163   31.0257 C   0  0  0  0  0  0  0  0  0  0  0  0
   19.7072    5.3517   31.3317 O   0  0  0  0  0  0  0  0  0  0  0  0
   21.6960    4.6002   30.2412 C   0  0  0  0  0  0  0  0  0  0  0  0
   23.0923    4.3587   30.8149 C   0  0  0  0  0  0  0  0  0  0  0  0
   23.3320    3.5009   31.9082 C   0  0  0  0  0  0  0  0  0  0  0  0
   22.2245    2.7564   32.6419 C   0  0  0  0  0  0  0  0  0  0  0  0
   24.6378    3.3402   32.3790 C   0  0  0  0  0  0  0  0  0  0  0  0
   25.7007    4.0060   31.7729 C   0  0  0  0  0  0  0  0  0  0  0  0
   25.4683    4.8553   30.6932 C   0  0  0  0  0  0  0  0  0  0  0  0
   26.6266    5.5872   30.0438 C   0  0  0  0  0  0  0  0  0  0  0  0
   24.1669    5.0304   30.2231 C   0  0  0  0  0  0  0  0  0  0  0  0
   24.8406   12.2476   29.6699 H   0  0  0  0  0  0  0  0  0  0  0  0
   23.2586   13.0908   29.7816 H   0  0  0  0  0  0  0  0  0  0  0  0
   24.2509   12.8435   31.2584 H   0  0  0  0  0  0  0  0  0  0  0  0
   22.9434   10.6244   29.5804 H   0  0  0  0  0  0  0  0  0  0  0  0
   23.9357   10.3771   31.0572 H   0  0  0  0  0  0  0  0  0  0  0  0
   19.2434    7.2195   32.8434 H   0  0  0  0  0  0  0  0  0  0  0  0
   18.0660   10.3781   33.9214 H   0  0  0  0  0  0  0  0  0  0  0  0
   17.4992    9.0476   33.1631 H   0  0  0  0  0  0  0  0  0  0  0  0
   22.4316    6.8242   31.0202 H   0  0  0  0  0  0  0  0  0  0  0  0
   21.1539    3.6431   30.2362 H   0  0  0  0  0  0  0  0  0  0  0  0
   21.8045    4.9655   29.2093 H   0  0  0  0  0  0  0  0  0  0  0  0
   22.0758    1.7699   32.1786 H   0  0  0  0  0  0  0  0  0  0  0  0
   22.5066    2.6269   33.6972 H   0  0  0  0  0  0  0  0  0  0  0  0
   21.2909    3.3348   32.5803 H   0  0  0  0  0  0  0  0  0  0  0  0
   24.8251    2.6923   33.2225 H   0  0  0  0  0  0  0  0  0  0  0  0
   26.7062    3.8637   32.1404 H   0  0  0  0  0  0  0  0  0  0  0  0
   27.0403    4.9721   29.2311 H   0  0  0  0  0  0  0  0  0  0  0  0
   26.2720    6.5448   29.6347 H   0  0  0  0  0  0  0  0  0  0  0  0
   27.4080    5.7761   30.7946 H   0  0  0  0  0  0  0  0  0  0  0  0
   23.9864    5.6940   29.3904 H   0  0  0  0  0  0  0  0  0  0  0  0
  1  2  1  0  0  0  0
  2  3  1  0  0  0  0
  3  4  1  0  0  0  0
  4 10  2  0  0  0  0
  4  5  1  0  0  0  0
  5  6  2  0  0  0  0
  6  7  1  0  0  0  0
  6 13  1  0  0  0  0
  7  8  2  0  0  0  0
  8  9  1  0  0  0  0
  8 10  1  0  0  0  0
 10 11  1  0  0  0  0
 11 12  3  0  0  0  0
 13 14  1  0  0  0  0
 14 15  2  0  0  0  0
 14 16  1  0  0  0  0
 16 17  1  0  0  0  0
 17 24  2  0  0  0  0
 17 18  1  0  0  0  0
 18 19  1  0  0  0  0
 18 20  2  0  0  0  0
 20 21  1  0  0  0  0
 21 22  2  0  0  0  0
 22 23  1  0  0  0  0
 22 24  1  0  0  0  0
  1 25  1  0  0  0  0
  1 26  1  0  0  0  0
  1 27  1  0  0  0  0
  2 28  1  0  0  0  0
  2 29  1  0  0  0  0
  7 30  1  0  0  0  0
  9 31  1  0  0  0  0
  9 32  1  0  0  0  0
 13 33  1  0  0  0  0
 16 34  1  0  0  0  0
 16 35  1  0  0  0  0
 19 36  1  0  0  0  0
 19 37  1  0  0  0  0
 19 38  1  0  0  0  0
 20 39  1  0  0  0  0
 21 40  1  0  0  0  0
 23 41  1  0  0  0  0
 23 42  1  0  0  0  0
 23 43  1  0  0  0  0
 24 44  1  0  0  0  0
M  END
> <i_m_stars>
0

> <r_user_dG.exp>
-7.286071

$$$$
18635-1
  -OEChem-05192314073D
 Structure written by MMmdl.
 44 45  0     0  0  0  0  0  0999 V2000
   23.9496   12.4061   30.2951 C   0  0  0  0  0  0  0  0  0  0  0  0
   23.2519   11.0659   30.5395 C   0  0  0  0  0  0  0  0  0  0  0  0
   22.1059   11.3120   31.3507 O   0  0  0  0  0  0  0  0  0  0  0  0
   21.3257   10.2498   31.7750 C   0  0  0  0  0  0  0  0  0  0  0  0
   21.7076    9.0020   31.3906 N   0  0  0  0  0  0  0  0  0  0  0  0
   20.9482    7.9622   31.7631 C   0  0  0  0  0  0  0  0  0  0  0  0
   19.8115    8.0884   32.5458 C   0  0  0  0  0  0  0  0  0  0  0  0
   19.4246    9.3586   32.9354 C   0  0  0  0  0  0  0  0  0  0  0  0
   18.2605    9.4247   33.6906 N   0  0  0  0  0  0  0  0  0  0  0  0
   20.1835   10.4770   32.5507 C   0  0  0  0  0  0  0  0  0  0  0  0
   19.8271   11.8457   32.9062 C   0  0  0  0  0  0  0  0  0  0  0  0
   19.5534   12.9361   33.1819 N   0  0  0  0  0  0  0  0  0  0  0  0
   21.4602    6.7905   31.2552 N   0  0  0  0  0  0  0  0  0  0  0  0
   20.8690    5.6163   31.0257 C   0  0  0  0  0  0  0  0  0  0  0  0
   19.7072    5.3517   31.3317 O   0  0  0  0  0  0  0  0  0  0  0  0
   21.6960    4.6002   30.2412 C   0  0  0  0  0  0  0  0  0  0  0  0
   23.0923    4.3587   30.8149 C   0  0  0  0  0  0  0  0  0  0  0  0
   23.3320    3.5009   31.9082 C   0  0  0  0  0  0  0  0  0  0  0  0
   22.2245    2.7564   32.6419 C   0  0  0  0  0  0  0  0  0  0  0  0
   24.6378    3.3402   32.3790 C   0  0  0  0  0  0  0  0  0  0  0  0
   25.7007    4.0060   31.7729 C   0  0  0  0  0  0  0  0  0  0  0  0
   25.4683    4.8553   30.6932 C   0  0  0  0  0  0  0  0  0  0  0  0
   26.6266    5.5872   30.0438 C   0  0  0  0  0  0  0  0  0  0  0  0
   24.1669    5.0304   30.2231 C   0  0  0  0  0  0  0  0  0  0  0  0
   24.8406   12.2476   29.6699 H   0  0  0  0  0  0  0  0  0  0  0  0
   23.2586   13.0908   29.7816 H   0  0  0  0  0  0  0  0  0  0  0  0
   24.2509   12.8435   31.2584 H   0  0  0  0  0  0  0  0  0  0  0  0
   22.9434   10.6244   29.5804 H   0  0  0  0  0  0  0  0  0  0  0  0
   23.9357   10.3771   31.0572 H   0  0  0  0  0  0  0  0  0  0  0  0
   19.2434    7.2195   32.8434 H   0  0  0  0  0  0  0  0  0  0  0  0
   18.0660   10.3781   33.9214 H   0  0  0  0  0  0  0  0  0  0  0  0
   17.4992    9.0476   33.1631 H   0  0  0  0  0  0  0  0  0  0  0  0
   19.5058    4.4605   31.0715 H   0  0  0  0  0  0  0  0  0  0  0  0
   21.1539    3.6431   30.2362 H   0  0  0  0  0  0  0  0  0  0  0  0
   21.8045    4.9655   29.2093 H   0  0  0  0  0  0  0  0  0  0  0  0
   22.0758    1.7699   32.1786 H   0  0  0  0  0  0  0  0  0  0  0  0
   22.5066    2.6269   33.6972 H   0  0  0  0  0  0  0  0  0  0  0  0
   21.2909    3.3348   32.5803 H   0  0  0  0  0  0  0  0  0  0  0  0
   24.8251    2.6923   33.2225 H   0  0  0  0  0  0  0  0  0  0  0  0
   26.7062    3.8637   32.1404 H   0  0  0  0  0  0  0  0  0  0  0  0
   27.0403    4.9721   29.2311 H   0  0  0  0  0  0  0  0  0  0  0  0
   26.2720    6.5448   29.6347 H   0  0  0  0  0  0  0  0  0  0  0  0
   27.4080    5.7761   30.7946 H   0  0  0  0  0  0  0  0  0  0  0  0
   23.9864    5.6940   29.3904 H   0  0  0  0  0  0  0  0  0  0  0  0
  1  2  1  0  0  0  0
  2  3  1  0  0  0  0
  3  4  1  0  0  0  0
  4 10  2  0  0  0  0
  4  5  1  0  0  0  0
  5  6  2  0  0  0  0
  6  7  1  0  0  0  0
  6 13  1  0  0  0  0
  7  8  2  0  0  0  0
  8  9  1  0  0  0  0
  8 10  1  0  0  0  0
 10 11  1  0  0  0  0
 11 12  3  0  0  0  0
 13 14  2  0  0  0  0
 14 15  1  0  0  0  0
 14 16  1  0  0  0  0
 16 17  1  0  0  0  0
 17 24  2  0  0  0  0
 17 18  1  0  0  0  0
 18 19  1  0  0  0  0
 18 20  2  0  0  0  0
 20 21  1  0  0  0  0
 21 22  2  0  0  0  0
 22 23  1  0  0  0  0
 22 24  1  0  0  0  0
  1 25  1  0  0  0  0
  1 26  1  0  0  0  0
  1 27  1  0  0  0  0
  2 28  1  0  0  0  0
  2 29  1  0  0  0  0
  7 30  1  0  0  0  0
  9 31  1  0  0  0  0
  9 32  1  0  0  0  0
 15 33  1  0  0  0  0
 16 34  1  0  0  0  0
 16 35  1  0  0  0  0
 19 36  1  0  0  0  0
 19 37  1  0  0  0  0
 19 38  1  0  0  0  0
 20 39  1  0  0  0  0
 21 40  1  0  0  0  0
 23 41  1  0  0  0  0
 23 42  1  0  0  0  0
 23 43  1  0  0  0  0
 24 44  1  0  0  0  0
M  END
> <i_m_stars>
0

> <r_user_dG.exp>
-7.286071

$$$$
18635-1
  -OEChem-05192314073D
 Structure written by MMmdl.
 44 45  0     0  0  0  0  0  0999 V2000
   23.9496   12.4061   30.2951 C   0  0  0  0  0  0  0  0  0  0  0  0
   23.2519   11.0659   30.5395 C   0  0  0  0  0  0  0  0  0  0  0  0
   22.1059   11.3120   31.3507 O   0  0  0  0  0  0  0  0  0  0  0  0
   21.3257   10.2498   31.7750 C   0  0  0  0  0  0  0  0  0  0  0  0
   21.7076    9.0020   31.3906 N   0  0  0  0  0  0  0  0  0  0  0  0
   20.9482    7.9622   31.7631 C   0  0  0  0  0  0  0  0  0  0  0  0
   19.8115    8.0884   32.5458 C   0  0  0  0  0  0  0  0  0  0  0  0
   19.4246    9.3586   32.9354 C   0  0  0  0  0  0  0  0  0  0  0  0
   18.2605    9.4247   33.6906 N   0  0  0  0  0  0  0  0  0  0  0  0
   20.1835   10.4770   32.5507 C   0  0  0  0  0  0  0  0  0  0  0  0
   19.8271   11.8457   32.9062 C   0  0  0  0  0  0  0  0  0  0  0  0
   19.5534   12.9361   33.1819 N   0  0  0  0  0  0  0  0  0  0  0  0
   21.4602    6.7905   31.2552 N   0  0  0  0  0  0  0  0  0  0  0  0
   20.8690    5.6163   31.0257 C   0  0  0  0  0  0  0  0  0  0  0  0
   19.7072    5.3517   31.3317 O   0  0  0  0  0  0  0  0  0  0  0  0
   21.6960    4.6002   30.2412 C   0  0  0  0  0  0  0  0  0  0  0  0
   23.0923    4.3587   30.8149 C   0  0  0  0  0  0  0  0  0  0  0  0
   23.3320    3.5009   31.9082 C   0  0  0  0  0  0  0  0  0  0  0  0
   22.2245    2.7564   32.6419 C   0  0  0  0  0  0  0  0  0  0  0  0
   24.6378    3.3402   32.3790 C   0  0  0  0  0  0  0  0  0  0  0  0
   25.7007    4.0060   31.7729 C   0  0  0  0  0  0  0  0  0  0  0  0
   25.4683    4.8553   30.6932 C   0  0  0  0  0  0  0  0  0  0  0  0
   26.6266    5.5872   30.0438 C   0  0  0  0  0  0  0  0  0  0  0  0
   24.1669    5.0304   30.2231 C   0  0  0  0  0  0  0  0  0  0  0  0
   24.8406   12.2476   29.6699 H   0  0  0  0  0  0  0  0  0  0  0  0
   23.2586   13.0908   29.7816 H   0  0  0  0  0  0  0  0  0  0  0  0
   24.2509   12.8435   31.2584 H   0  0  0  0  0  0  0  0  0  0  0  0
   22.9434   10.6244   29.5804 H   0  0  0  0  0  0  0  0  0  0  0  0
   23.9357   10.3771   31.0572 H   0  0  0  0  0  0  0  0  0  0  0  0
   22.5337    8.8640   30.8442 H   0  0  0  0  0  0  0  0  0  0  0  0
   19.2434    7.2195   32.8434 H   0  0  0  0  0  0  0  0  0  0  0  0
   18.0227   10.3659   33.9308 H   0  0  0  0  0  0  0  0  0  0  0  0
   22.4316    6.8242   31.0202 H   0  0  0  0  0  0  0  0  0  0  0  0
   21.1539    3.6431   30.2362 H   0  0  0  0  0  0  0  0  0  0  0  0
   21.8045    4.9655   29.2093 H   0  0  0  0  0  0  0  0  0  0  0  0
   22.0758    1.7699   32.1786 H   0  0  0  0  0  0  0  0  0  0  0  0
   22.5066    2.6269   33.6972 H   0  0  0  0  0  0  0  0  0  0  0  0
   21.2909    3.3348   32.5803 H   0  0  0  0  0  0  0  0  0  0  0  0
   24.8251    2.6923   33.2225 H   0  0  0  0  0  0  0  0  0  0  0  0
   26.7062    3.8637   32.1404 H   0  0  0  0  0  0  0  0  0  0  0  0
   27.0403    4.9721   29.2311 H   0  0  0  0  0  0  0  0  0  0  0  0
   26.2720    6.5448   29.6347 H   0  0  0  0  0  0  0  0  0  0  0  0
   27.4080    5.7761   30.7946 H   0  0  0  0  0  0  0  0  0  0  0  0
   23.9864    5.6940   29.3904 H   0  0  0  0  0  0  0  0  0  0  0  0
  1  2  1  0  0  0  0
  2  3  1  0  0  0  0
  3  4  1  0  0  0  0
  4 10  2  0  0  0  0
  4  5  1  0  0  0  0
  5  6  1  0  0  0  0
  6  7  2  0  0  0  0
  6 13  1  0  0  0  0
  7  8  1  0  0  0  0
  8  9  2  0  0  0  0
  8 10  1  0  0  0  0
 10 11  1  0  0  0  0
 11 12  3  0  0  0  0
 13 14  1  0  0  0  0
 14 15  2  0  0  0  0
 14 16  1  0  0  0  0
 16 17  1  0  0  0  0
 17 24  2  0  0  0  0
 17 18  1  0  0  0  0
 18 19  1  0  0  0  0
 18 20  2  0  0  0  0
 20 21  1  0  0  0  0
 21 22  2  0  0  0  0
 22 23  1  0  0  0  0
 22 24  1  0  0  0  0
  1 25  1  0  0  0  0
  1 26  1  0  0  0  0
  1 27  1  0  0  0  0
  2 28  1  0  0  0  0
  2 29  1  0  0  0  0
  5 30  1  0  0  0  0
  7 31  1  0  0  0  0
  9 32  1  0  0  0  0
 13 33  1  0  0  0  0
 16 34  1  0  0  0  0
 16 35  1  0  0  0  0
 19 36  1  0  0  0  0
 19 37  1  0  0  0  0
 19 38  1  0  0  0  0
 20 39  1  0  0  0  0
 21 40  1  0  0  0  0
 23 41  1  0  0  0  0
 23 42  1  0  0  0  0
 23 43  1  0  0  0  0
 24 44  1  0  0  0  0
M  END
> <i_m_stars>
0

> <r_user_dG.exp>
-7.286071

$$$$
18635-1
  -OEChem-05192314073D
 Structure written by MMmdl.
 44 45  0     0  0  0  0  0  0999 V2000
   23.9496   12.4061   30.2951 C   0  0  0  0  0  0  0  0  0  0  0  0
   23.2519   11.0659   30.5395 C   0  0  0  0  0  0  0  0  0  0  0  0
   22.1059   11.3120   31.3507 O   0  0  0  0  0  0  0  0  0  0  0  0
   21.3257   10.2498   31.7750 C   0  0  0  0  0  0  0  0  0  0  0  0
   21.7076    9.0020   31.3906 N   0  0  0  0  0  0  0  0  0  0  0  0
   20.9482    7.9622   31.7631 C   0  0  0  0  0  0  0  0  0  0  0  0
   19.8115    8.0884   32.5458 C   0  0  0  0  0  0  0  0  0  0  0  0
   19.4246    9.3586   32.9354 C   0  0  0  0  0  0  0  0  0  0  0  0
   18.2605    9.4247   33.6906 N   0  0  0  0  0  0  0  0  0  0  0  0
   20.1835   10.4770   32.5507 C   0  0  0  0  0  0  0  0  0  0  0  0
   19.8271   11.8457   32.9062 C   0  0  0  0  0  0  0  0  0  0  0  0
   19.5534   12.9361   33.1819 N   0  0  0  0  0  0  0  0  0  0  0  0
   21.4602    6.7905   31.2552 N   0  0  0  0  0  0  0  0  0  0  0  0
   20.8690    5.6163   31.0257 C   0  0  0  0  0  0  0  0  0  0  0  0
   19.7072    5.3517   31.3317 O   0  0  0  0  0  0  0  0  0  0  0  0
   21.6960    4.6002   30.2412 C   0  0  0  0  0  0  0  0  0  0  0  0
   23.0923    4.3587   30.8149 C   0  0  0  0  0  0  0  0  0  0  0  0
   23.3320    3.5009   31.9082 C   0  0  0  0  0  0  0  0  0  0  0  0
   22.2245    2.7564   32.6419 C   0  0  0  0  0  0  0  0  0  0  0  0
   24.6378    3.3402   32.3790 C   0  0  0  0  0  0  0  0  0  0  0  0
   25.7007    4.0060   31.7729 C   0  0  0  0  0  0  0  0  0  0  0  0
   25.4683    4.8553   30.6932 C   0  0  0  0  0  0  0  0  0  0  0  0
   26.6266    5.5872   30.0438 C   0  0  0  0  0  0  0  0  0  0  0  0
   24.1669    5.0304   30.2231 C   0  0  0  0  0  0  0  0  0  0  0  0
   24.8406   12.2476   29.6699 H   0  0  0  0  0  0  0  0  0  0  0  0
   23.2586   13.0908   29.7816 H   0  0  0  0  0  0  0  0  0  0  0  0
   24.2509   12.8435   31.2584 H   0  0  0  0  0  0  0  0  0  0  0  0
   22.9434   10.6244   29.5804 H   0  0  0  0  0  0  0  0  0  0  0  0
   23.9357   10.3771   31.0572 H   0  0  0  0  0  0  0  0  0  0  0  0
   22.5337    8.8640   30.8442 H   0  0  0  0  0  0  0  0  0  0  0  0
   19.2434    7.2195   32.8434 H   0  0  0  0  0  0  0  0  0  0  0  0
   18.0660   10.3781   33.9214 H   0  0  0  0  0  0  0  0  0  0  0  0
   17.4992    9.0476   33.1631 H   0  0  0  0  0  0  0  0  0  0  0  0
   21.1539    3.6431   30.2362 H   0  0  0  0  0  0  0  0  0  0  0  0
   21.8045    4.9655   29.2093 H   0  0  0  0  0  0  0  0  0  0  0  0
   22.0758    1.7699   32.1786 H   0  0  0  0  0  0  0  0  0  0  0  0
   22.5066    2.6269   33.6972 H   0  0  0  0  0  0  0  0  0  0  0  0
   21.2909    3.3348   32.5803 H   0  0  0  0  0  0  0  0  0  0  0  0
   24.8251    2.6923   33.2225 H   0  0  0  0  0  0  0  0  0  0  0  0
   26.7062    3.8637   32.1404 H   0  0  0  0  0  0  0  0  0  0  0  0
   27.0403    4.9721   29.2311 H   0  0  0  0  0  0  0  0  0  0  0  0
   26.2720    6.5448   29.6347 H   0  0  0  0  0  0  0  0  0  0  0  0
   27.4080    5.7761   30.7946 H   0  0  0  0  0  0  0  0  0  0  0  0
   23.9864    5.6940   29.3904 H   0  0  0  0  0  0  0  0  0  0  0  0
  1  2  1  0  0  0  0
  2  3  1  0  0  0  0
  3  4  1  0  0  0  0
  4 10  2  0  0  0  0
  4  5  1  0  0  0  0
  5  6  1  0  0  0  0
  6  7  1  0  0  0  0
  6 13  2  0  0  0  0
  7  8  2  0  0  0  0
  8  9  1  0  0  0  0
  8 10  1  0  0  0  0
 10 11  1  0  0  0  0
 11 12  3  0  0  0  0
 13 14  1  0  0  0  0
 14 15  2  0  0  0  0
 14 16  1  0  0  0  0
 16 17  1  0  0  0  0
 17 24  2  0  0  0  0
 17 18  1  0  0  0  0
 18 19  1  0  0  0  0
 18 20  2  0  0  0  0
 20 21  1  0  0  0  0
 21 22  2  0  0  0  0
 22 23  1  0  0  0  0
 22 24  1  0  0  0  0
  1 25  1  0  0  0  0
  1 26  1  0  0  0  0
  1 27  1  0  0  0  0
  2 28  1  0  0  0  0
  2 29  1  0  0  0  0
  5 30  1  0  0  0  0
  7 31  1  0  0  0  0
  9 32  1  0  0  0  0
  9 33  1  0  0  0  0
 16 34  1  0  0  0  0
 16 35  1  0  0  0  0
 19 36  1  0  0  0  0
 19 37  1  0  0  0  0
 19 38  1  0  0  0  0
 20 39  1  0  0  0  0
 21 40  1  0  0  0  0
 23 41  1  0  0  0  0
 23 42  1  0  0  0  0
 23 43  1  0  0  0  0
 24 44  1  0  0  0  0
M  END
> <i_m_stars>
0

> <r_user_dG.exp>
-7.286071

$$$$
18635-1
  -OEChem-05192314073D
 Structure written by MMmdl.
 44 45  0     0  0  0  0  0  0999 V2000
   23.9496   12.4061   30.2951 C   0  0  0  0  0  0  0  0  0  0  0  0
   23.2519   11.0659   30.5395 C   0  0  0  0  0  0  0  0  0  0  0  0
   22.1059   11.3120   31.3507 O   0  0  0  0  0  0  0  0  0  0  0  0
   21.3257   10.2498   31.7750 C   0  0  0  0  0  0  0  0  0  0  0  0
   21.7076    9.0020   31.3906 N   0  0  0  0  0  0  0  0  0  0  0  0
   20.9482    7.9622   31.7631 C   0  0  0  0  0  0  0  0  0  0  0  0
   19.8115    8.0884   32.5458 C   0  0  0  0  0  0  0  0  0  0  0  0
   19.4246    9.3586   32.9354 C   0  0  0  0  0  0  0  0  0  0  0  0
   18.2605    9.4247   33.6906 N   0  0  0  0  0  0  0  0  0  0  0  0
   20.1835   10.4770   32.5507 C   0  0  0  0  0  0  0  0  0  0  0  0
   19.8271   11.8457   32.9062 C   0  0  0  0  0  0  0  0  0  0  0  0
   19.5534   12.9361   33.1819 N   0  0  0  0  0  0  0  0  0  0  0  0
   21.4602    6.7905   31.2552 N   0  0  0  0  0  0  0  0  0  0  0  0
   20.8690    5.6163   31.0257 C   0  0  0  0  0  0  0  0  0  0  0  0
   19.7072    5.3517   31.3317 O   0  0  0  0  0  0  0  0  0  0  0  0
   21.6960    4.6002   30.2412 C   0  0  0  0  0  0  0  0  0  0  0  0
   23.0923    4.3587   30.8149 C   0  0  0  0  0  0  0  0  0  0  0  0
   23.3320    3.5009   31.9082 C   0  0  0  0  0  0  0  0  0  0  0  0
   22.2245    2.7564   32.6419 C   0  0  0  0  0  0  0  0  0  0  0  0
   24.6378    3.3402   32.3790 C   0  0  0  0  0  0  0  0  0  0  0  0
   25.7007    4.0060   31.7729 C   0  0  0  0  0  0  0  0  0  0  0  0
   25.4683    4.8553   30.6932 C   0  0  0  0  0  0  0  0  0  0  0  0
   26.6266    5.5872   30.0438 C   0  0  0  0  0  0  0  0  0  0  0  0
   24.1669    5.0304   30.2231 C   0  0  0  0  0  0  0  0  0  0  0  0
   24.8406   12.2476   29.6699 H   0  0  0  0  0  0  0  0  0  0  0  0
   23.2586   13.0908   29.7816 H   0  0  0  0  0  0  0  0  0  0  0  0
   24.2509   12.8435   31.2584 H   0  0  0  0  0  0  0  0  0  0  0  0
   22.9434   10.6244   29.5804 H   0  0  0  0  0  0  0  0  0  0  0  0
   23.9357   10.3771   31.0572 H   0  0  0  0  0  0  0  0  0  0  0  0
   22.5337    8.8640   30.8442 H   0  0  0  0  0  0  0  0  0  0  0  0
   19.2434    7.2195   32.8434 H   0  0  0  0  0  0  0  0  0  0  0  0
   18.0227   10.3659   33.9308 H   0  0  0  0  0  0  0  0  0  0  0  0
   19.5058    4.4605   31.0715 H   0  0  0  0  0  0  0  0  0  0  0  0
   21.1539    3.6431   30.2362 H   0  0  0  0  0  0  0  0  0  0  0  0
   21.8045    4.9655   29.2093 H   0  0  0  0  0  0  0  0  0  0  0  0
   22.0758    1.7699   32.1786 H   0  0  0  0  0  0  0  0  0  0  0  0
   22.5066    2.6269   33.6972 H   0  0  0  0  0  0  0  0  0  0  0  0
   21.2909    3.3348   32.5803 H   0  0  0  0  0  0  0  0  0  0  0  0
   24.8251    2.6923   33.2225 H   0  0  0  0  0  0  0  0  0  0  0  0
   26.7062    3.8637   32.1404 H   0  0  0  0  0  0  0  0  0  0  0  0
   27.0403    4.9721   29.2311 H   0  0  0  0  0  0  0  0  0  0  0  0
   26.2720    6.5448   29.6347 H   0  0  0  0  0  0  0  0  0  0  0  0
   27.4080    5.7761   30.7946 H   0  0  0  0  0  0  0  0  0  0  0  0
   23.9864    5.6940   29.3904 H   0  0  0  0  0  0  0  0  0  0  0  0
  1  2  1  0  0  0  0
  2  3  1  0  0  0  0
  3  4  1  0  0  0  0
  4 10  2  0  0  0  0
  4  5  1  0  0  0  0
  5  6  1  0  0  0  0
  6  7  2  0  0  0  0
  6 13  1  0  0  0  0
  7  8  1  0  0  0  0
  8  9  2  0  0  0  0
  8 10  1  0  0  0  0
 10 11  1  0  0  0  0
 11 12  3  0  0  0  0
 13 14  2  0  0  0  0
 14 15  1  0  0  0  0
 14 16  1  0  0  0  0
 16 17  1  0  0  0  0
 17 24  2  0  0  0  0
 17 18  1  0  0  0  0
 18 19  1  0  0  0  0
 18 20  2  0  0  0  0
 20 21  1  0  0  0  0
 21 22  2  0  0  0  0
 22 23  1  0  0  0  0
 22 24  1  0  0  0  0
  1 25  1  0  0  0  0
  1 26  1  0  0  0  0
  1 27  1  0  0  0  0
  2 28  1  0  0  0  0
  2 29  1  0  0  0  0
  5 30  1  0  0  0  0
  7 31  1  0  0  0  0
  9 32  1  0  0  0  0
 15 33  1  0  0  0  0
 16 34  1  0  0  0  0
 16 35  1  0  0  0  0
 19 36  1  0  0  0  0
 19 37  1  0  0  0  0
 19 38  1  0  0  0  0
 20 39  1  0  0  0  0
 21 40  1  0  0  0  0
 23 41  1  0  0  0  0
 23 42  1  0  0  0  0
 23 43  1  0  0  0  0
 24 44  1  0  0  0  0
M  END
> <i_m_stars>
0

> <r_user_dG.exp>
-7.286071

$$$$
18635-1
  -OEChem-05192314073D
 Structure written by MMmdl.
 44 45  0     1  0  0  0  0  0999 V2000
   23.9496   12.4061   30.2951 C   0  0  0  0  0  0  0  0  0  0  0  0
   23.2519   11.0659   30.5395 C   0  0  0  0  0  0  0  0  0  0  0  0
   22.1059   11.3120   31.3507 O   0  0  0  0  0  0  0  0  0  0  0  0
   21.3257   10.2498   31.7750 C   0  0  0  0  0  0  0  0  0  0  0  0
   21.7076    9.0020   31.3906 N   0  0  0  0  0  0  0  0  0  0  0  0
   20.9482    7.9622   31.7631 C   0  0  0  0  0  0  0  0  0  0  0  0
   19.8115    8.0884   32.5458 C   0  0  0  0  0  0  0  0  0  0  0  0
   19.4246    9.3586   32.9354 C   0  0  0  0  0  0  0  0  0  0  0  0
   18.2605    9.4247   33.6906 N   0  0  0  0  0  0  0  0  0  0  0  0
   20.1835   10.4770   32.5507 C   0  0  3  0  0  0  0  0  0  0  0  0
   19.8271   11.8457   32.9062 C   0  0  0  0  0  0  0  0  0  0  0  0
   19.5534   12.9361   33.1819 N   0  0  0  0  0  0  0  0  0  0  0  0
   21.4602    6.7905   31.2552 N   0  0  0  0  0  0  0  0  0  0  0  0
   20.8690    5.6163   31.0257 C   0  0  0  0  0  0  0  0  0  0  0  0
   19.7072    5.3517   31.3317 O   0  0  0  0  0  0  0  0  0  0  0  0
   21.6960    4.6002   30.2412 C   0  0  0  0  0  0  0  0  0  0  0  0
   23.0923    4.3587   30.8149 C   0  0  0  0  0  0  0  0  0  0  0  0
   23.3320    3.5009   31.9082 C   0  0  0  0  0  0  0  0  0  0  0  0
   22.2245    2.7564   32.6419 C   0  0  0  0  0  0  0  0  0  0  0  0
   24.6378    3.3402   32.3790 C   0  0  0  0  0  0  0  0  0  0  0  0
   25.7007    4.0060   31.7729 C   0  0  0  0  0  0  0  0  0  0  0  0
   25.4683    4.8553   30.6932 C   0  0  0  0  0  0  0  0  0  0  0  0
   26.6266    5.5872   30.0438 C   0  0  0  0  0  0  0  0  0  0  0  0
   24.1669    5.0304   30.2231 C   0  0  0  0  0  0  0  0  0  0  0  0
   24.8406   12.2476   29.6699 H   0  0  0  0  0  0  0  0  0  0  0  0
   23.2586   13.0908   29.7816 H   0  0  0  0  0  0  0  0  0  0  0  0
   24.2509   12.8435   31.2584 H   0  0  0  0  0  0  0  0  0  0  0  0
   22.9434   10.6244   29.5804 H   0  0  0  0  0  0  0  0  0  0  0  0
   23.9357   10.3771   31.0572 H   0  0  0  0  0  0  0  0  0  0  0  0
   18.9754    7.6518   31.9798 H   0  0  0  0  0  0  0  0  0  0  0  0
   19.9794    7.5030   33.4619 H   0  0  0  0  0  0  0  0  0  0  0  0
   18.0227   10.3659   33.9308 H   0  0  0  0  0  0  0  0  0  0  0  0
   20.7841   10.3906   33.4682 H   0  0  0  0  0  0  0  0  0  0  0  0
   21.1539    3.6431   30.2362 H   0  0  0  0  0  0  0  0  0  0  0  0
   21.8045    4.9655   29.2093 H   0  0  0  0  0  0  0  0  0  0  0  0
   22.0758    1.7699   32.1786 H   0  0  0  0  0  0  0  0  0  0  0  0
   22.5066    2.6269   33.6972 H   0  0  0  0  0  0  0  0  0  0  0  0
   21.2909    3.3348   32.5803 H   0  0  0  0  0  0  0  0  0  0  0  0
   24.8251    2.6923   33.2225 H   0  0  0  0  0  0  0  0  0  0  0  0
   26.7062    3.8637   32.1404 H   0  0  0  0  0  0  0  0  0  0  0  0
   27.0403    4.9721   29.2311 H   0  0  0  0  0  0  0  0  0  0  0  0
   26.2720    6.5448   29.6347 H   0  0  0  0  0  0  0  0  0  0  0  0
   27.4080    5.7761   30.7946 H   0  0  0  0  0  0  0  0  0  0  0  0
   23.9864    5.6940   29.3904 H   0  0  0  0  0  0  0  0  0  0  0  0
  1  2  1  0  0  0  0
  2  3  1  0  0  0  0
  3  4  1  0  0  0  0
  4 10  1  0  0  0  0
  4  5  2  0  0  0  0
  5  6  1  0  0  0  0
  6  7  1  0  0  0  0
  6 13  2  0  0  0  0
  7  8  1  0  0  0  0
  8  9  2  0  0  0  0
  8 10  1  0  0  0  0
 10 11  1  0  0  0  0
 11 12  3  0  0  0  0
 13 14  1  0  0  0  0
 14 15  2  0  0  0  0
 14 16  1  0  0  0  0
 16 17  1  0  0  0  0
 17 24  2  0  0  0  0
 17 18  1  0  0  0  0
 18 19  1  0  0  0  0
 18 20  2  0  0  0  0
 20 21  1  0  0  0  0
 21 22  2  0  0  0  0
 22 23  1  0  0  0  0
 22 24  1  0  0  0  0
  1 25  1  0  0  0  0
  1 26  1  0  0  0  0
  1 27  1  0  0  0  0
  2 28  1  0  0  0  0
  2 29  1  0  0  0  0
  7 30  1  0  0  0  0
  7 31  1  0  0  0  0
  9 32  1  0  0  0  0
 10 33  1  0  0  0  0
 16 34  1  0  0  0  0
 16 35  1  0  0  0  0
 19 36  1  0  0  0  0
 19 37  1  0  0  0  0
 19 38  1  0  0  0  0
 20 39  1  0  0  0  0
 21 40  1  0  0  0  0
 23 41  1  0  0  0  0
 23 42  1  0  0  0  0
 23 43  1  0  0  0  0
 24 44  1  0  0  0  0
M  END
> <i_m_stars>
0

> <r_user_dG.exp>
-7.286071

$$$$
18635-1
  -OEChem-05192314073D
 Structure written by MMmdl.
 44 45  0     1  0  0  0  0  0999 V2000
   23.9496   12.4061   30.2951 C   0  0  0  0  0  0  0  0  0  0  0  0
   23.2519   11.0659   30.5395 C   0  0  0  0  0  0  0  0  0  0  0  0
   22.1059   11.3120   31.3507 O   0  0  0  0  0  0  0  0  0  0  0  0
   21.3257   10.2498   31.7750 C   0  0  0  0  0  0  0  0  0  0  0  0
   21.7076    9.0020   31.3906 N   0  0  0  0  0  0  0  0  0  0  0  0
   20.9482    7.9622   31.7631 C   0  0  0  0  0  0  0  0  0  0  0  0
   19.8115    8.0884   32.5458 C   0  0  0  0  0  0  0  0  0  0  0  0
   19.4246    9.3586   32.9354 C   0  0  0  0  0  0  0  0  0  0  0  0
   18.2605    9.4247   33.6906 N   0  0  0  0  0  0  0  0  0  0  0  0
   20.1835   10.4770   32.5507 C   0  0  3  0  0  0  0  0  0  0  0  0
   19.8271   11.8457   32.9062 C   0  0  0  0  0  0  0  0  0  0  0  0
   19.5534   12.9361   33.1819 N   0  0  0  0  0  0  0  0  0  0  0  0
   21.4602    6.7905   31.2552 N   0  0  0  0  0  0  0  0  0  0  0  0
   20.8690    5.6163   31.0257 C   0  0  0  0  0  0  0  0  0  0  0  0
   19.7072    5.3517   31.3317 O   0  0  0  0  0  0  0  0  0  0  0  0
   21.6960    4.6002   30.2412 C   0  0  0  0  0  0  0  0  0  0  0  0
   23.0923    4.3587   30.8149 C   0  0  0  0  0  0  0  0  0  0  0  0
   23.3320    3.5009   31.9082 C   0  0  0  0  0  0  0  0  0  0  0  0
   22.2245    2.7564   32.6419 C   0  0  0  0  0  0  0  0  0  0  0  0
   24.6378    3.3402   32.3790 C   0  0  0  0  0  0  0  0  0  0  0  0
   25.7007    4.0060   31.7729 C   0  0  0  0  0  0  0  0  0  0  0  0
   25.4683    4.8553   30.6932 C   0  0  0  0  0  0  0  0  0  0  0  0
   26.6266    5.5872   30.0438 C   0  0  0  0  0  0  0  0  0  0  0  0
   24.1669    5.0304   30.2231 C   0  0  0  0  0  0  0  0  0  0  0  0
   24.8406   12.2476   29.6699 H   0  0  0  0  0  0  0  0  0  0  0  0
   23.2586   13.0908   29.7816 H   0  0  0  0  0  0  0  0  0  0  0  0
   24.2509   12.8435   31.2584 H   0  0  0  0  0  0  0  0  0  0  0  0
   22.9434   10.6244   29.5804 H   0  0  0  0  0  0  0  0  0  0  0  0
   23.9357   10.3771   31.0572 H   0  0  0  0  0  0  0  0  0  0  0  0
   19.2434    7.2195   32.8434 H   0  0  0  0  0  0  0  0  0  0  0  0
   18.0227   10.3659   33.9308 H   0  0  0  0  0  0  0  0  0  0  0  0
   20.7841   10.3906   33.4682 H   0  0  0  0  0  0  0  0  0  0  0  0
   22.4316    6.8242   31.0202 H   0  0  0  0  0  0  0  0  0  0  0  0
   21.1539    3.6431   30.2362 H   0  0  0  0  0  0  0  0  0  0  0  0
   21.8045    4.9655   29.2093 H   0  0  0  0  0  0  0  0  0  0  0  0
   22.0758    1.7699   32.1786 H   0  0  0  0  0  0  0  0  0  0  0  0
   22.5066    2.6269   33.6972 H   0  0  0  0  0  0  0  0  0  0  0  0
   21.2909    3.3348   32.5803 H   0  0  0  0  0  0  0  0  0  0  0  0
   24.8251    2.6923   33.2225 H   0  0  0  0  0  0  0  0  0  0  0  0
   26.7062    3.8637   32.1404 H   0  0  0  0  0  0  0  0  0  0  0  0
   27.0403    4.9721   29.2311 H   0  0  0  0  0  0  0  0  0  0  0  0
   26.2720    6.5448   29.6347 H   0  0  0  0  0  0  0  0  0  0  0  0
   27.4080    5.7761   30.7946 H   0  0  0  0  0  0  0  0  0  0  0  0
   23.9864    5.6940   29.3904 H   0  0  0  0  0  0  0  0  0  0  0  0
  1  2  1  0  0  0  0
  2  3  1  0  0  0  0
  3  4  1  0  0  0  0
  4 10  1  0  0  0  0
  4  5  2  0  0  0  0
  5  6  1  0  0  0  0
  6  7  2  0  0  0  0
  6 13  1  0  0  0  0
  7  8  1  0  0  0  0
  8  9  2  0  0  0  0
  8 10  1  0  0  0  0
 10 11  1  0  0  0  0
 11 12  3  0  0  0  0
 13 14  1  0  0  0  0
 14 15  2  0  0  0  0
 14 16  1  0  0  0  0
 16 17  1  0  0  0  0
 17 24  2  0  0  0  0
 17 18  1  0  0  0  0
 18 19  1  0  0  0  0
 18 20  2  0  0  0  0
 20 21  1  0  0  0  0
 21 22  2  0  0  0  0
 22 23  1  0  0  0  0
 22 24  1  0  0  0  0
  1 25  1  0  0  0  0
  1 26  1  0  0  0  0
  1 27  1  0  0  0  0
  2 28  1  0  0  0  0
  2 29  1  0  0  0  0
  7 30  1  0  0  0  0
  9 31  1  0  0  0  0
 10 32  1  0  0  0  0
 13 33  1  0  0  0  0
 16 34  1  0  0  0  0
 16 35  1  0  0  0  0
 19 36  1  0  0  0  0
 19 37  1  0  0  0  0
 19 38  1  0  0  0  0
 20 39  1  0  0  0  0
 21 40  1  0  0  0  0
 23 41  1  0  0  0  0
 23 42  1  0  0  0  0
 23 43  1  0  0  0  0
 24 44  1  0  0  0  0
M  END
> <i_m_stars>
0

> <r_user_dG.exp>
-7.286071

$$$$
18635-1
  -OEChem-05192314073D
 Structure written by MMmdl.
 44 45  0     0  0  0  0  0  0999 V2000
   23.9496   12.4061   30.2951 C   0  0  0  0  0  0  0  0  0  0  0  0
   23.2519   11.0659   30.5395 C   0  0  0  0  0  0  0  0  0  0  0  0
   22.1059   11.3120   31.3507 O   0  0  0  0  0  0  0  0  0  0  0  0
   21.3257   10.2498   31.7750 C   0  0  0  0  0  0  0  0  0  0  0  0
   21.7076    9.0020   31.3906 N   0  0  0  0  0  0  0  0  0  0  0  0
   20.9482    7.9622   31.7631 C   0  0  0  0  0  0  0  0  0  0  0  0
   19.8115    8.0884   32.5458 C   0  0  0  0  0  0  0  0  0  0  0  0
   19.4246    9.3586   32.9354 C   0  0  0  0  0  0  0  0  0  0  0  0
   18.2605    9.4247   33.6906 N   0  0  0  0  0  0  0  0  0  0  0  0
   20.1835   10.4770   32.5507 C   0  0  0  0  0  0  0  0  0  0  0  0
   19.8271   11.8457   32.9062 C   0  0  0  0  0  0  0  0  0  0  0  0
   19.5534   12.9361   33.1819 N   0  0  0  0  0  0  0  0  0  0  0  0
   21.4602    6.7905   31.2552 N   0  0  0  0  0  0  0  0  0  0  0  0
   20.8690    5.6163   31.0257 C   0  0  0  0  0  0  0  0  0  0  0  0
   19.7072    5.3517   31.3317 O   0  0  0  0  0  0  0  0  0  0  0  0
   21.6960    4.6002   30.2412 C   0  0  0  0  0  0  0  0  0  0  0  0
   23.0923    4.3587   30.8149 C   0  0  0  0  0  0  0  0  0  0  0  0
   23.3320    3.5009   31.9082 C   0  0  0  0  0  0  0  0  0  0  0  0
   22.2245    2.7564   32.6419 C   0  0  0  0  0  0  0  0  0  0  0  0
   24.6378    3.3402   32.3790 C   0  0  0  0  0  0  0  0  0  0  0  0
   25.7007    4.0060   31.7729 C   0  0  0  0  0  0  0  0  0  0  0  0
   25.4683    4.8553   30.6932 C   0  0  0  0  0  0  0  0  0  0  0  0
   26.6266    5.5872   30.0438 C   0  0  0  0  0  0  0  0  0  0  0  0
   24.1669    5.0304   30.2231 C   0  0  0  0  0  0  0  0  0  0  0  0
   24.8406   12.2476   29.6699 H   0  0  0  0  0  0  0  0  0  0  0  0
   23.2586   13.0908   29.7816 H   0  0  0  0  0  0  0  0  0  0  0  0
   24.2509   12.8435   31.2584 H   0  0  0  0  0  0  0  0  0  0  0  0
   22.9434   10.6244   29.5804 H   0  0  0  0  0  0  0  0  0  0  0  0
   23.9357   10.3771   31.0572 H   0  0  0  0  0  0  0  0  0  0  0  0
   18.9754    7.6518   31.9798 H   0  0  0  0  0  0  0  0  0  0  0  0
   19.9794    7.5030   33.4619 H   0  0  0  0  0  0  0  0  0  0  0  0
   18.0227   10.3659   33.9308 H   0  0  0  0  0  0  0  0  0  0  0  0
   22.4316    6.8242   31.0202 H   0  0  0  0  0  0  0  0  0  0  0  0
   21.1539    3.6431   30.2362 H   0  0  0  0  0  0  0  0  0  0  0  0
   21.8045    4.9655   29.2093 H   0  0  0  0  0  0  0  0  0  0  0  0
   22.0758    1.7699   32.1786 H   0  0  0  0  0  0  0  0  0  0  0  0
   22.5066    2.6269   33.6972 H   0  0  0  0  0  0  0  0  0  0  0  0
   21.2909    3.3348   32.5803 H   0  0  0  0  0  0  0  0  0  0  0  0
   24.8251    2.6923   33.2225 H   0  0  0  0  0  0  0  0  0  0  0  0
   26.7062    3.8637   32.1404 H   0  0  0  0  0  0  0  0  0  0  0  0
   27.0403    4.9721   29.2311 H   0  0  0  0  0  0  0  0  0  0  0  0
   26.2720    6.5448   29.6347 H   0  0  0  0  0  0  0  0  0  0  0  0
   27.4080    5.7761   30.7946 H   0  0  0  0  0  0  0  0  0  0  0  0
   23.9864    5.6940   29.3904 H   0  0  0  0  0  0  0  0  0  0  0  0
  1  2  1  0  0  0  0
  2  3  1  0  0  0  0
  3  4  1  0  0  0  0
  4 10  2  0  0  0  0
  4  5  1  0  0  0  0
  5  6  2  0  0  0  0
  6  7  1  0  0  0  0
  6 13  1  0  0  0  0
  7  8  1  0  0  0  0
  8  9  2  0  0  0  0
  8 10  1  0  0  0  0
 10 11  1  0  0  0  0
 11 12  3  0  0  0  0
 13 14  1  0  0  0  0
 14 15  2  0  0  0  0
 14 16  1  0  0  0  0
 16 17  1  0  0  0  0
 17 24  2  0  0  0  0
 17 18  1  0  0  0  0
 18 19  1  0  0  0  0
 18 20  2  0  0  0  0
 20 21  1  0  0  0  0
 21 22  2  0  0  0  0
 22 23  1  0  0  0  0
 22 24  1  0  0  0  0
  1 25  1  0  0  0  0
  1 26  1  0  0  0  0
  1 27  1  0  0  0  0
  2 28  1  0  0  0  0
  2 29  1  0  0  0  0
  7 30  1  0  0  0  0
  7 31  1  0  0  0  0
  9 32  1  0  0  0  0
 13 33  1  0  0  0  0
 16 34  1  0  0  0  0
 16 35  1  0  0  0  0
 19 36  1  0  0  0  0
 19 37  1  0  0  0  0
 19 38  1  0  0  0  0
 20 39  1  0  0  0  0
 21 40  1  0  0  0  0
 23 41  1  0  0  0  0
 23 42  1  0  0  0  0
 23 43  1  0  0  0  0
 24 44  1  0  0  0  0
M  END
> <i_m_stars>
0

> <r_user_dG.exp>
-7.286071

$$$$
18635-1
  -OEChem-05192314073D
 Structure written by MMmdl.
 44 45  0     1  0  0  0  0  0999 V2000
   23.9496   12.4061   30.2951 C   0  0  0  0  0  0  0  0  0  0  0  0
   23.2519   11.0659   30.5395 C   0  0  0  0  0  0  0  0  0  0  0  0
   22.1059   11.3120   31.3507 O   0  0  0  0  0  0  0  0  0  0  0  0
   21.3257   10.2498   31.7750 C   0  0  0  0  0  0  0  0  0  0  0  0
   21.7076    9.0020   31.3906 N   0  0  0  0  0  0  0  0  0  0  0  0
   20.9482    7.9622   31.7631 C   0  0  0  0  0  0  0  0  0  0  0  0
   19.8115    8.0884   32.5458 C   0  0  0  0  0  0  0  0  0  0  0  0
   19.4246    9.3586   32.9354 C   0  0  0  0  0  0  0  0  0  0  0  0
   18.2605    9.4247   33.6906 N   0  0  0  0  0  0  0  0  0  0  0  0
   20.1835   10.4770   32.5507 C   0  0  3  0  0  0  0  0  0  0  0  0
   19.8271   11.8457   32.9062 C   0  0  0  0  0  0  0  0  0  0  0  0
   19.5534   12.9361   33.1819 N   0  0  0  0  0  0  0  0  0  0  0  0
   21.4602    6.7905   31.2552 N   0  0  0  0  0  0  0  0  0  0  0  0
   20.8690    5.6163   31.0257 C   0  0  0  0  0  0  0  0  0  0  0  0
   19.7072    5.3517   31.3317 O   0  0  0  0  0  0  0  0  0  0  0  0
   21.6960    4.6002   30.2412 C   0  0  0  0  0  0  0  0  0  0  0  0
   23.0923    4.3587   30.8149 C   0  0  0  0  0  0  0  0  0  0  0  0
   23.3320    3.5009   31.9082 C   0  0  0  0  0  0  0  0  0  0  0  0
   22.2245    2.7564   32.6419 C   0  0  0  0  0  0  0  0  0  0  0  0
   24.6378    3.3402   32.3790 C   0  0  0  0  0  0  0  0  0  0  0  0
   25.7007    4.0060   31.7729 C   0  0  0  0  0  0  0  0  0  0  0  0
   25.4683    4.8553   30.6932 C   0  0  0  0  0  0  0  0  0  0  0  0
   26.6266    5.5872   30.0438 C   0  0  0  0  0  0  0  0  0  0  0  0
   24.1669    5.0304   30.2231 C   0  0  0  0  0  0  0  0  0  0  0  0
   24.8406   12.2476   29.6699 H   0  0  0  0  0  0  0  0  0  0  0  0
   23.2586   13.0908   29.7816 H   0  0  0  0  0  0  0  0  0  0  0  0
   24.2509   12.8435   31.2584 H   0  0  0  0  0  0  0  0  0  0  0  0
   22.9434   10.6244   29.5804 H   0  0  0  0  0  0  0  0  0  0  0  0
   23.9357   10.3771   31.0572 H   0  0  0  0  0  0  0  0  0  0  0  0
   19.2434    7.2195   32.8434 H   0  0  0  0  0  0  0  0  0  0  0  0
   18.0660   10.3781   33.9214 H   0  0  0  0  0  0  0  0  0  0  0  0
   17.4992    9.0476   33.1631 H   0  0  0  0  0  0  0  0  0  0  0  0
   20.7841   10.3906   33.4682 H   0  0  0  0  0  0  0  0  0  0  0  0
   21.1539    3.6431   30.2362 H   0  0  0  0  0  0  0  0  0  0  0  0
   21.8045    4.9655   29.2093 H   0  0  0  0  0  0  0  0  0  0  0  0
   22.0758    1.7699   32.1786 H   0  0  0  0  0  0  0  0  0  0  0  0
   22.5066    2.6269   33.6972 H   0  0  0  0  0  0  0  0  0  0  0  0
   21.2909    3.3348   32.5803 H   0  0  0  0  0  0  0  0  0  0  0  0
   24.8251    2.6923   33.2225 H   0  0  0  0  0  0  0  0  0  0  0  0
   26.7062    3.8637   32.1404 H   0  0  0  0  0  0  0  0  0  0  0  0
   27.0403    4.9721   29.2311 H   0  0  0  0  0  0  0  0  0  0  0  0
   26.2720    6.5448   29.6347 H   0  0  0  0  0  0  0  0  0  0  0  0
   27.4080    5.7761   30.7946 H   0  0  0  0  0  0  0  0  0  0  0  0
   23.9864    5.6940   29.3904 H   0  0  0  0  0  0  0  0  0  0  0  0
  1  2  1  0  0  0  0
  2  3  1  0  0  0  0
  3  4  1  0  0  0  0
  4 10  1  0  0  0  0
  4  5  2  0  0  0  0
  5  6  1  0  0  0  0
  6  7  1  0  0  0  0
  6 13  2  0  0  0  0
  7  8  2  0  0  0  0
  8  9  1  0  0  0  0
  8 10  1  0  0  0  0
 10 11  1  0  0  0  0
 11 12  3  0  0  0  0
 13 14  1  0  0  0  0
 14 15  2  0  0  0  0
 14 16  1  0  0  0  0
 16 17  1  0  0  0  0
 17 24  2  0  0  0  0
 17 18  1  0  0  0  0
 18 19  1  0  0  0  0
 18 20  2  0  0  0  0
 20 21  1  0  0  0  0
 21 22  2  0  0  0  0
 22 23  1  0  0  0  0
 22 24  1  0  0  0  0
  1 25  1  0  0  0  0
  1 26  1  0  0  0  0
  1 27  1  0  0  0  0
  2 28  1  0  0  0  0
  2 29  1  0  0  0  0
  7 30  1  0  0  0  0
  9 31  1  0  0  0  0
  9 32  1  0  0  0  0
 10 33  1  0  0  0  0
 16 34  1  0  0  0  0
 16 35  1  0  0  0  0
 19 36  1  0  0  0  0
 19 37  1  0  0  0  0
 19 38  1  0  0  0  0
 20 39  1  0  0  0  0
 21 40  1  0  0  0  0
 23 41  1  0  0  0  0
 23 42  1  0  0  0  0
 23 43  1  0  0  0  0
 24 44  1  0  0  0  0
M  END
> <i_m_stars>
0

> <r_user_dG.exp>
-7.286071

$$$$
18635-1
  -OEChem-05192314073D
 Structure written by MMmdl.
 44 45  0     0  0  0  0  0  0999 V2000
   23.9496   12.4061   30.2951 C   0  0  0  0  0  0  0  0  0  0  0  0
   23.2519   11.0659   30.5395 C   0  0  0  0  0  0  0  0  0  0  0  0
   22.1059   11.3120   31.3507 O   0  0  0  0  0  0  0  0  0  0  0  0
   21.3257   10.2498   31.7750 C   0  0  0  0  0  0  0  0  0  0  0  0
   21.7076    9.0020   31.3906 N   0  0  0  0  0  0  0  0  0  0  0  0
   20.9482    7.9622   31.7631 C   0  0  0  0  0  0  0  0  0  0  0  0
   19.8115    8.0884   32.5458 C   0  0  0  0  0  0  0  0  0  0  0  0
   19.4246    9.3586   32.9354 C   0  0  0  0  0  0  0  0  0  0  0  0
   18.2605    9.4247   33.6906 N   0  0  0  0  0  0  0  0  0  0  0  0
   20.1835   10.4770   32.5507 C   0  0  0  0  0  0  0  0  0  0  0  0
   19.8271   11.8457   32.9062 C   0  0  0  0  0  0  0  0  0  0  0  0
   19.5534   12.9361   33.1819 N   0  0  0  0  0  0  0  0  0  0  0  0
   21.4602    6.7905   31.2552 N   0  0  0  0  0  0  0  0  0  0  0  0
   20.8690    5.6163   31.0257 C   0  0  0  0  0  0  0  0  0  0  0  0
   19.7072    5.3517   31.3317 O   0  0  0  0  0  0  0  0  0  0  0  0
   21.6960    4.6002   30.2412 C   0  0  0  0  0  0  0  0  0  0  0  0
   23.0923    4.3587   30.8149 C   0  0  0  0  0  0  0  0  0  0  0  0
   23.3320    3.5009   31.9082 C   0  0  0  0  0  0  0  0  0  0  0  0
   22.2245    2.7564   32.6419 C   0  0  0  0  0  0  0  0  0  0  0  0
   24.6378    3.3402   32.3790 C   0  0  0  0  0  0  0  0  0  0  0  0
   25.7007    4.0060   31.7729 C   0  0  0  0  0  0  0  0  0  0  0  0
   25.4683    4.8553   30.6932 C   0  0  0  0  0  0  0  0  0  0  0  0
   26.6266    5.5872   30.0438 C   0  0  0  0  0  0  0  0  0  0  0  0
   24.1669    5.0304   30.2231 C   0  0  0  0  0  0  0  0  0  0  0  0
   24.8406   12.2476   29.6699 H   0  0  0  0  0  0  0  0  0  0  0  0
   23.2586   13.0908   29.7816 H   0  0  0  0  0  0  0  0  0  0  0  0
   24.2509   12.8435   31.2584 H   0  0  0  0  0  0  0  0  0  0  0  0
   22.9434   10.6244   29.5804 H   0  0  0  0  0  0  0  0  0  0  0  0
   23.9357   10.3771   31.0572 H   0  0  0  0  0  0  0  0  0  0  0  0
   18.9754    7.6518   31.9798 H   0  0  0  0  0  0  0  0  0  0  0  0
   19.9794    7.5030   33.4619 H   0  0  0  0  0  0  0  0  0  0  0  0
   18.0660   10.3781   33.9214 H   0  0  0  0  0  0  0  0  0  0  0  0
   17.4992    9.0476   33.1631 H   0  0  0  0  0  0  0  0  0  0  0  0
   21.1539    3.6431   30.2362 H   0  0  0  0  0  0  0  0  0  0  0  0
   21.8045    4.9655   29.2093 H   0  0  0  0  0  0  0  0  0  0  0  0
   22.0758    1.7699   32.1786 H   0  0  0  0  0  0  0  0  0  0  0  0
   22.5066    2.6269   33.6972 H   0  0  0  0  0  0  0  0  0  0  0  0
   21.2909    3.3348   32.5803 H   0  0  0  0  0  0  0  0  0  0  0  0
   24.8251    2.6923   33.2225 H   0  0  0  0  0  0  0  0  0  0  0  0
   26.7062    3.8637   32.1404 H   0  0  0  0  0  0  0  0  0  0  0  0
   27.0403    4.9721   29.2311 H   0  0  0  0  0  0  0  0  0  0  0  0
   26.2720    6.5448   29.6347 H   0  0  0  0  0  0  0  0  0  0  0  0
   27.4080    5.7761   30.7946 H   0  0  0  0  0  0  0  0  0  0  0  0
   23.9864    5.6940   29.3904 H   0  0  0  0  0  0  0  0  0  0  0  0
  1  2  1  0  0  0  0
  2  3  1  0  0  0  0
  3  4  1  0  0  0  0
  4 10  1  0  0  0  0
  4  5  2  0  0  0  0
  5  6  1  0  0  0  0
  6  7  1  0  0  0  0
  6 13  2  0  0  0  0
  7  8  1  0  0  0  0
  8  9  1  0  0  0  0
  8 10  2  0  0  0  0
 10 11  1  0  0  0  0
 11 12  3  0  0  0  0
 13 14  1  0  0  0  0
 14 15  2  0  0  0  0
 14 16  1  0  0  0  0
 16 17  1  0  0  0  0
 17 24  2  0  0  0  0
 17 18  1  0  0  0  0
 18 19  1  0  0  0  0
 18 20  2  0  0  0  0
 20 21  1  0  0  0  0
 21 22  2  0  0  0  0
 22 23  1  0  0  0  0
 22 24  1  0  0  0  0
  1 25  1  0  0  0  0
  1 26  1  0  0  0  0
  1 27  1  0  0  0  0
  2 28  1  0  0  0  0
  2 29  1  0  0  0  0
  7 30  1  0  0  0  0
  7 31  1  0  0  0  0
  9 32  1  0  0  0  0
  9 33  1  0  0  0  0
 16 34  1  0  0  0  0
 16 35  1  0  0  0  0
 19 36  1  0  0  0  0
 19 37  1  0  0  0  0
 19 38  1  0  0  0  0
 20 39  1  0  0  0  0
 21 40  1  0  0  0  0
 23 41  1  0  0  0  0
 23 42  1  0  0  0  0
 23 43  1  0  0  0  0
 24 44  1  0  0  0  0
M  END
> <i_m_stars>
0

> <r_user_dG.exp>
-7.286071

$$$$
18635-1
  -OEChem-05192314073D
 Structure written by MMmdl.
 44 45  0     0  0  0  0  0  0999 V2000
   23.9496   12.4061   30.2951 C   0  0  0  0  0  0  0  0  0  0  0  0
   23.2519   11.0659   30.5395 C   0  0  0  0  0  0  0  0  0  0  0  0
   22.1059   11.3120   31.3507 O   0  0  0  0  0  0  0  0  0  0  0  0
   21.3257   10.2498   31.7750 C   0  0  0  0  0  0  0  0  0  0  0  0
   21.7076    9.0020   31.3906 N   0  0  0  0  0  0  0  0  0  0  0  0
   20.9482    7.9622   31.7631 C   0  0  0  0  0  0  0  0  0  0  0  0
   19.8115    8.0884   32.5458 C   0  0  0  0  0  0  0  0  0  0  0  0
   19.4246    9.3586   32.9354 C   0  0  0  0  0  0  0  0  0  0  0  0
   18.2605    9.4247   33.6906 N   0  0  0  0  0  0  0  0  0  0  0  0
   20.1835   10.4770   32.5507 C   0  0  0  0  0  0  0  0  0  0  0  0
   19.8271   11.8457   32.9062 C   0  0  0  0  0  0  0  0  0  0  0  0
   19.5534   12.9361   33.1819 N   0  0  0  0  0  0  0  0  0  0  0  0
   21.4602    6.7905   31.2552 N   0  0  0  0  0  0  0  0  0  0  0  0
   20.8690    5.6163   31.0257 C   0  0  0  0  0  0  0  0  0  0  0  0
   19.7072    5.3517   31.3317 O   0  0  0  0  0  0  0  0  0  0  0  0
   21.6960    4.6002   30.2412 C   0  0  0  0  0  0  0  0  0  0  0  0
   23.0923    4.3587   30.8149 C   0  0  0  0  0  0  0  0  0  0  0  0
   23.3320    3.5009   31.9082 C   0  0  0  0  0  0  0  0  0  0  0  0
   22.2245    2.7564   32.6419 C   0  0  0  0  0  0  0  0  0  0  0  0
   24.6378    3.3402   32.3790 C   0  0  0  0  0  0  0  0  0  0  0  0
   25.7007    4.0060   31.7729 C   0  0  0  0  0  0  0  0  0  0  0  0
   25.4683    4.8553   30.6932 C   0  0  0  0  0  0  0  0  0  0  0  0
   26.6266    5.5872   30.0438 C   0  0  0  0  0  0  0  0  0  0  0  0
   24.1669    5.0304   30.2231 C   0  0  0  0  0  0  0  0  0  0  0  0
   24.8406   12.2476   29.6699 H   0  0  0  0  0  0  0  0  0  0  0  0
   23.2586   13.0908   29.7816 H   0  0  0  0  0  0  0  0  0  0  0  0
   24.2509   12.8435   31.2584 H   0  0  0  0  0  0  0  0  0  0  0  0
   22.9434   10.6244   29.5804 H   0  0  0  0  0  0  0  0  0  0  0  0
   23.9357   10.3771   31.0572 H   0  0  0  0  0  0  0  0  0  0  0  0
   22.5337    8.8640   30.8442 H   0  0  0  0  0  0  0  0  0  0  0  0
   18.9754    7.6518   31.9798 H   0  0  0  0  0  0  0  0  0  0  0  0
   19.9794    7.5030   33.4619 H   0  0  0  0  0  0  0  0  0  0  0  0
   18.0227   10.3659   33.9308 H   0  0  0  0  0  0  0  0  0  0  0  0
   21.1539    3.6431   30.2362 H   0  0  0  0  0  0  0  0  0  0  0  0
   21.8045    4.9655   29.2093 H   0  0  0  0  0  0  0  0  0  0  0  0
   22.0758    1.7699   32.1786 H   0  0  0  0  0  0  0  0  0  0  0  0
   22.5066    2.6269   33.6972 H   0  0  0  0  0  0  0  0  0  0  0  0
   21.2909    3.3348   32.5803 H   0  0  0  0  0  0  0  0  0  0  0  0
   24.8251    2.6923   33.2225 H   0  0  0  0  0  0  0  0  0  0  0  0
   26.7062    3.8637   32.1404 H   0  0  0  0  0  0  0  0  0  0  0  0
   27.0403    4.9721   29.2311 H   0  0  0  0  0  0  0  0  0  0  0  0
   26.2720    6.5448   29.6347 H   0  0  0  0  0  0  0  0  0  0  0  0
   27.4080    5.7761   30.7946 H   0  0  0  0  0  0  0  0  0  0  0  0
   23.9864    5.6940   29.3904 H   0  0  0  0  0  0  0  0  0  0  0  0
  1  2  1  0  0  0  0
  2  3  1  0  0  0  0
  3  4  1  0  0  0  0
  4 10  2  0  0  0  0
  4  5  1  0  0  0  0
  5  6  1  0  0  0  0
  6  7  1  0  0  0  0
  6 13  2  0  0  0  0
  7  8  1  0  0  0  0
  8  9  2  0  0  0  0
  8 10  1  0  0  0  0
 10 11  1  0  0  0  0
 11 12  3  0  0  0  0
 13 14  1  0  0  0  0
 14 15  2  0  0  0  0
 14 16  1  0  0  0  0
 16 17  1  0  0  0  0
 17 24  2  0  0  0  0
 17 18  1  0  0  0  0
 18 19  1  0  0  0  0
 18 20  2  0  0  0  0
 20 21  1  0  0  0  0
 21 22  2  0  0  0  0
 22 23  1  0  0  0  0
 22 24  1  0  0  0  0
  1 25  1  0  0  0  0
  1 26  1  0  0  0  0
  1 27  1  0  0  0  0
  2 28  1  0  0  0  0
  2 29  1  0  0  0  0
  5 30  1  0  0  0  0
  7 31  1  0  0  0  0
  7 32  1  0  0  0  0
  9 33  1  0  0  0  0
 16 34  1  0  0  0  0
 16 35  1  0  0  0  0
 19 36  1  0  0  0  0
 19 37  1  0  0  0  0
 19 38  1  0  0  0  0
 20 39  1  0  0  0  0
 21 40  1  0  0  0  0
 23 41  1  0  0  0  0
 23 42  1  0  0  0  0
 23 43  1  0  0  0  0
 24 44  1  0  0  0  0
M  END
> <i_m_stars>
0

> <r_user_dG.exp>
-7.286071

$$$$
18635-1
  -OEChem-05192314073D
 Structure written by MMmdl.
 44 45  0     1  0  0  0  0  0999 V2000
   23.9496   12.4061   30.2951 C   0  0  0  0  0  0  0  0  0  0  0  0
   23.2519   11.0659   30.5395 C   0  0  0  0  0  0  0  0  0  0  0  0
   22.1059   11.3120   31.3507 O   0  0  0  0  0  0  0  0  0  0  0  0
   21.3257   10.2498   31.7750 C   0  0  0  0  0  0  0  0  0  0  0  0
   21.7076    9.0020   31.3906 N   0  0  0  0  0  0  0  0  0  0  0  0
   20.9482    7.9622   31.7631 C   0  0  0  0  0  0  0  0  0  0  0  0
   19.8115    8.0884   32.5458 C   0  0  0  0  0  0  0  0  0  0  0  0
   19.4246    9.3586   32.9354 C   0  0  0  0  0  0  0  0  0  0  0  0
   18.2605    9.4247   33.6906 N   0  0  0  0  0  0  0  0  0  0  0  0
   20.1835   10.4770   32.5507 C   0  0  3  0  0  0  0  0  0  0  0  0
   19.8271   11.8457   32.9062 C   0  0  0  0  0  0  0  0  0  0  0  0
   19.5534   12.9361   33.1819 N   0  0  0  0  0  0  0  0  0  0  0  0
   21.4602    6.7905   31.2552 N   0  0  0  0  0  0  0  0  0  0  0  0
   20.8690    5.6163   31.0257 C   0  0  0  0  0  0  0  0  0  0  0  0
   19.7072    5.3517   31.3317 O   0  0  0  0  0  0  0  0  0  0  0  0
   21.6960    4.6002   30.2412 C   0  0  0  0  0  0  0  0  0  0  0  0
   23.0923    4.3587   30.8149 C   0  0  0  0  0  0  0  0  0  0  0  0
   23.3320    3.5009   31.9082 C   0  0  0  0  0  0  0  0  0  0  0  0
   22.2245    2.7564   32.6419 C   0  0  0  0  0  0  0  0  0  0  0  0
   24.6378    3.3402   32.3790 C   0  0  0  0  0  0  0  0  0  0  0  0
   25.7007    4.0060   31.7729 C   0  0  0  0  0  0  0  0  0  0  0  0
   25.4683    4.8553   30.6932 C   0  0  0  0  0  0  0  0  0  0  0  0
   26.6266    5.5872   30.0438 C   0  0  0  0  0  0  0  0  0  0  0  0
   24.1669    5.0304   30.2231 C   0  0  0  0  0  0  0  0  0  0  0  0
   24.8406   12.2476   29.6699 H   0  0  0  0  0  0  0  0  0  0  0  0
   23.2586   13.0908   29.7816 H   0  0  0  0  0  0  0  0  0  0  0  0
   24.2509   12.8435   31.2584 H   0  0  0  0  0  0  0  0  0  0  0  0
   22.9434   10.6244   29.5804 H   0  0  0  0  0  0  0  0  0  0  0  0
   23.9357   10.3771   31.0572 H   0  0  0  0  0  0  0  0  0  0  0  0
   19.2434    7.2195   32.8434 H   0  0  0  0  0  0  0  0  0  0  0  0
   18.0227   10.3659   33.9308 H   0  0  0  0  0  0  0  0  0  0  0  0
   20.7841   10.3906   33.4682 H   0  0  0  0  0  0  0  0  0  0  0  0
   19.5058    4.4605   31.0715 H   0  0  0  0  0  0  0  0  0  0  0  0
   21.1539    3.6431   30.2362 H   0  0  0  0  0  0  0  0  0  0  0  0
   21.8045    4.9655   29.2093 H   0  0  0  0  0  0  0  0  0  0  0  0
   22.0758    1.7699   32.1786 H   0  0  0  0  0  0  0  0  0  0  0  0
   22.5066    2.6269   33.6972 H   0  0  0  0  0  0  0  0  0  0  0  0
   21.2909    3.3348   32.5803 H   0  0  0  0  0  0  0  0  0  0  0  0
   24.8251    2.6923   33.2225 H   0  0  0  0  0  0  0  0  0  0  0  0
   26.7062    3.8637   32.1404 H   0  0  0  0  0  0  0  0  0  0  0  0
   27.0403    4.9721   29.2311 H   0  0  0  0  0  0  0  0  0  0  0  0
   26.2720    6.5448   29.6347 H   0  0  0  0  0  0  0  0  0  0  0  0
   27.4080    5.7761   30.7946 H   0  0  0  0  0  0  0  0  0  0  0  0
   23.9864    5.6940   29.3904 H   0  0  0  0  0  0  0  0  0  0  0  0
  1  2  1  0  0  0  0
  2  3  1  0  0  0  0
  3  4  1  0  0  0  0
  4 10  1  0  0  0  0
  4  5  2  0  0  0  0
  5  6  1  0  0  0  0
  6  7  2  0  0  0  0
  6 13  1  0  0  0  0
  7  8  1  0  0  0  0
  8  9  2  0  0  0  0
  8 10  1  0  0  0  0
 10 11  1  0  0  0  0
 11 12  3  0  0  0  0
 13 14  2  0  0  0  0
 14 15  1  0  0  0  0
 14 16  1  0  0  0  0
 16 17  1  0  0  0  0
 17 24  2  0  0  0  0
 17 18  1  0  0  0  0
 18 19  1  0  0  0  0
 18 20  2  0  0  0  0
 20 21  1  0  0  0  0
 21 22  2  0  0  0  0
 22 23  1  0  0  0  0
 22 24  1  0  0  0  0
  1 25  1  0  0  0  0
  1 26  1  0  0  0  0
  1 27  1  0  0  0  0
  2 28  1  0  0  0  0
  2 29  1  0  0  0  0
  7 30  1  0  0  0  0
  9 31  1  0  0  0  0
 10 32  1  0  0  0  0
 15 33  1  0  0  0  0
 16 34  1  0  0  0  0
 16 35  1  0  0  0  0
 19 36  1  0  0  0  0
 19 37  1  0  0  0  0
 19 38  1  0  0  0  0
 20 39  1  0  0  0  0
 21 40  1  0  0  0  0
 23 41  1  0  0  0  0
 23 42  1  0  0  0  0
 23 43  1  0  0  0  0
 24 44  1  0  0  0  0
M  END
> <i_m_stars>
0

> <r_user_dG.exp>
-7.286071

$$$$
18635-1
  -OEChem-05192314073D
 Structure written by MMmdl.
 44 45  0     0  0  0  0  0  0999 V2000
   23.9496   12.4061   30.2951 C   0  0  0  0  0  0  0  0  0  0  0  0
   23.2519   11.0659   30.5395 C   0  0  0  0  0  0  0  0  0  0  0  0
   22.1059   11.3120   31.3507 O   0  0  0  0  0  0  0  0  0  0  0  0
   21.3257   10.2498   31.7750 C   0  0  0  0  0  0  0  0  0  0  0  0
   21.7076    9.0020   31.3906 N   0  0  0  0  0  0  0  0  0  0  0  0
   20.9482    7.9622   31.7631 C   0  0  0  0  0  0  0  0  0  0  0  0
   19.8115    8.0884   32.5458 C   0  0  0  0  0  0  0  0  0  0  0  0
   19.4246    9.3586   32.9354 C   0  0  0  0  0  0  0  0  0  0  0  0
   18.2605    9.4247   33.6906 N   0  0  0  0  0  0  0  0  0  0  0  0
   20.1835   10.4770   32.5507 C   0  0  0  0  0  0  0  0  0  0  0  0
   19.8271   11.8457   32.9062 C   0  0  0  0  0  0  0  0  0  0  0  0
   19.5534   12.9361   33.1819 N   0  0  0  0  0  0  0  0  0  0  0  0
   21.4602    6.7905   31.2552 N   0  0  0  0  0  0  0  0  0  0  0  0
   20.8690    5.6163   31.0257 C   0  0  0  0  0  0  0  0  0  0  0  0
   19.7072    5.3517   31.3317 O   0  0  0  0  0  0  0  0  0  0  0  0
   21.6960    4.6002   30.2412 C   0  0  0  0  0  0  0  0  0  0  0  0
   23.0923    4.3587   30.8149 C   0  0  0  0  0  0  0  0  0  0  0  0
   23.3320    3.5009   31.9082 C   0  0  0  0  0  0  0  0  0  0  0  0
   22.2245    2.7564   32.6419 C   0  0  0  0  0  0  0  0  0  0  0  0
   24.6378    3.3402   32.3790 C   0  0  0  0  0  0  0  0  0  0  0  0
   25.7007    4.0060   31.7729 C   0  0  0  0  0  0  0  0  0  0  0  0
   25.4683    4.8553   30.6932 C   0  0  0  0  0  0  0  0  0  0  0  0
   26.6266    5.5872   30.0438 C   0  0  0  0  0  0  0  0  0  0  0  0
   24.1669    5.0304   30.2231 C   0  0  0  0  0  0  0  0  0  0  0  0
   24.8406   12.2476   29.6699 H   0  0  0  0  0  0  0  0  0  0  0  0
   23.2586   13.0908   29.7816 H   0  0  0  0  0  0  0  0  0  0  0  0
   24.2509   12.8435   31.2584 H   0  0  0  0  0  0  0  0  0  0  0  0
   22.9434   10.6244   29.5804 H   0  0  0  0  0  0  0  0  0  0  0  0
   23.9357   10.3771   31.0572 H   0  0  0  0  0  0  0  0  0  0  0  0
   18.9754    7.6518   31.9798 H   0  0  0  0  0  0  0  0  0  0  0  0
   19.9794    7.5030   33.4619 H   0  0  0  0  0  0  0  0  0  0  0  0
   18.0227   10.3659   33.9308 H   0  0  0  0  0  0  0  0  0  0  0  0
   19.5058    4.4605   31.0715 H   0  0  0  0  0  0  0  0  0  0  0  0
   21.1539    3.6431   30.2362 H   0  0  0  0  0  0  0  0  0  0  0  0
   21.8045    4.9655   29.2093 H   0  0  0  0  0  0  0  0  0  0  0  0
   22.0758    1.7699   32.1786 H   0  0  0  0  0  0  0  0  0  0  0  0
   22.5066    2.6269   33.6972 H   0  0  0  0  0  0  0  0  0  0  0  0
   21.2909    3.3348   32.5803 H   0  0  0  0  0  0  0  0  0  0  0  0
   24.8251    2.6923   33.2225 H   0  0  0  0  0  0  0  0  0  0  0  0
   26.7062    3.8637   32.1404 H   0  0  0  0  0  0  0  0  0  0  0  0
   27.0403    4.9721   29.2311 H   0  0  0  0  0  0  0  0  0  0  0  0
   26.2720    6.5448   29.6347 H   0  0  0  0  0  0  0  0  0  0  0  0
   27.4080    5.7761   30.7946 H   0  0  0  0  0  0  0  0  0  0  0  0
   23.9864    5.6940   29.3904 H   0  0  0  0  0  0  0  0  0  0  0  0
  1  2  1  0  0  0  0
  2  3  1  0  0  0  0
  3  4  1  0  0  0  0
  4 10  2  0  0  0  0
  4  5  1  0  0  0  0
  5  6  2  0  0  0  0
  6  7  1  0  0  0  0
  6 13  1  0  0  0  0
  7  8  1  0  0  0  0
  8  9  2  0  0  0  0
  8 10  1  0  0  0  0
 10 11  1  0  0  0  0
 11 12  3  0  0  0  0
 13 14  2  0  0  0  0
 14 15  1  0  0  0  0
 14 16  1  0  0  0  0
 16 17  1  0  0  0  0
 17 24  2  0  0  0  0
 17 18  1  0  0  0  0
 18 19  1  0  0  0  0
 18 20  2  0  0  0  0
 20 21  1  0  0  0  0
 21 22  2  0  0  0  0
 22 23  1  0  0  0  0
 22 24  1  0  0  0  0
  1 25  1  0  0  0  0
  1 26  1  0  0  0  0
  1 27  1  0  0  0  0
  2 28  1  0  0  0  0
  2 29  1  0  0  0  0
  7 30  1  0  0  0  0
  7 31  1  0  0  0  0
  9 32  1  0  0  0  0
 15 33  1  0  0  0  0
 16 34  1  0  0  0  0
 16 35  1  0  0  0  0
 19 36  1  0  0  0  0
 19 37  1  0  0  0  0
 19 38  1  0  0  0  0
 20 39  1  0  0  0  0
 21 40  1  0  0  0  0
 23 41  1  0  0  0  0
 23 42  1  0  0  0  0
 23 43  1  0  0  0  0
 24 44  1  0  0  0  0
M  END
> <i_m_stars>
0

> <r_user_dG.exp>
-7.286071

$$$$
