18627-1
  -OEChem-05192314073D
 Structure written by MMmdl.
 38 39  0     0  0  0  0  0  0999 V2000
   24.0455   12.2310   30.2644 C   0  0  0  0  0  0  0  0  0  0  0  0
   23.3145   10.9118   30.5250 C   0  0  0  0  0  0  0  0  0  0  0  0
   22.1664   11.2000   31.3187 O   0  0  0  0  0  0  0  0  0  0  0  0
   21.3513   10.1659   31.7455 C   0  0  0  0  0  0  0  0  0  0  0  0
   21.6956    8.9024   31.3722 N   0  0  0  0  0  0  0  0  0  0  0  0
   20.9003    7.8904   31.7476 C   0  0  0  0  0  0  0  0  0  0  0  0
   19.7671    8.0627   32.5273 C   0  0  0  0  0  0  0  0  0  0  0  0
   19.4228    9.3455   32.9112 C   0  0  0  0  0  0  0  0  0  0  0  0
   18.2685    9.4486   33.6770 N   0  0  0  0  0  0  0  0  0  0  0  0
   20.2166   10.4359   32.5197 C   0  0  0  0  0  0  0  0  0  0  0  0
   19.9034   11.8154   32.8755 C   0  0  0  0  0  0  0  0  0  0  0  0
   19.6627   12.9133   33.1535 N   0  0  0  0  0  0  0  0  0  0  0  0
   21.3886    6.6799   31.3021 N   0  0  0  0  0  0  0  0  0  0  0  0
   20.7526    5.5183   31.1147 C   0  0  0  0  0  0  0  0  0  0  0  0
   19.5388    5.3838   31.2541 O   0  0  0  0  0  0  0  0  0  0  0  0
   21.5779    4.2945   30.6927 C   0  0  0  0  0  0  0  0  0  0  0  0
   23.0905    4.5085   30.6435 C   0  0  0  0  0  0  0  0  0  0  0  0
   23.6658    5.3064   29.6460 C   0  0  0  0  0  0  0  0  0  0  0  0
   25.0464    5.5098   29.6200 C   0  0  0  0  0  0  0  0  0  0  0  0
   25.8561    4.9156   30.5871 C   0  0  0  0  0  0  0  0  0  0  0  0
   27.5599    5.1731   30.5675 Cl  0  0  0  0  0  0  0  0  0  0  0  0
   25.2884    4.1164   31.5778 C   0  0  0  0  0  0  0  0  0  0  0  0
   23.9087    3.9120   31.6076 C   0  0  0  0  0  0  0  0  0  0  0  0
   24.9393   12.0408   29.6521 H   0  0  0  0  0  0  0  0  0  0  0  0
   23.3760   12.9219   29.7310 H   0  0  0  0  0  0  0  0  0  0  0  0
   24.3464   12.6789   31.2230 H   0  0  0  0  0  0  0  0  0  0  0  0
   23.0060   10.4600   29.5707 H   0  0  0  0  0  0  0  0  0  0  0  0
   23.9764   10.2170   31.0627 H   0  0  0  0  0  0  0  0  0  0  0  0
   19.1680    7.2157   32.8275 H   0  0  0  0  0  0  0  0  0  0  0  0
   18.1032   10.4083   33.9040 H   0  0  0  0  0  0  0  0  0  0  0  0
   17.4918    9.0901   33.1590 H   0  0  0  0  0  0  0  0  0  0  0  0
   22.3651    6.6691   31.0868 H   0  0  0  0  0  0  0  0  0  0  0  0
   21.3730    3.4841   31.4078 H   0  0  0  0  0  0  0  0  0  0  0  0
   21.2454    3.9907   29.6891 H   0  0  0  0  0  0  0  0  0  0  0  0
   23.0395    5.7653   28.8953 H   0  0  0  0  0  0  0  0  0  0  0  0
   25.4872    6.1271   28.8512 H   0  0  0  0  0  0  0  0  0  0  0  0
   25.9179    3.6544   32.3239 H   0  0  0  0  0  0  0  0  0  0  0  0
   23.4720    3.2920   32.3766 H   0  0  0  0  0  0  0  0  0  0  0  0
  1  2  1  0  0  0  0
  2  3  1  0  0  0  0
  3  4  1  0  0  0  0
  4 10  2  0  0  0  0
  4  5  1  0  0  0  0
  5  6  2  0  0  0  0
  6  7  1  0  0  0  0
  6 13  1  0  0  0  0
  7  8  2  0  0  0  0
  8  9  1  0  0  0  0
  8 10  1  0  0  0  0
 10 11  1  0  0  0  0
 11 12  3  0  0  0  0
 13 14  1  0  0  0  0
 14 15  2  0  0  0  0
 14 16  1  0  0  0  0
 16 17  1  0  0  0  0
 17 23  2  0  0  0  0
 17 18  1  0  0  0  0
 18 19  2  0  0  0  0
 19 20  1  0  0  0  0
 20 21  1  0  0  0  0
 20 22  2  0  0  0  0
 22 23  1  0  0  0  0
  1 24  1  0  0  0  0
  1 25  1  0  0  0  0
  1 26  1  0  0  0  0
  2 27  1  0  0  0  0
  2 28  1  0  0  0  0
  7 29  1  0  0  0  0
  9 30  1  0  0  0  0
  9 31  1  0  0  0  0
 13 32  1  0  0  0  0
 16 33  1  0  0  0  0
 16 34  1  0  0  0  0
 18 35  1  0  0  0  0
 19 36  1  0  0  0  0
 22 37  1  0  0  0  0
 23 38  1  0  0  0  0
M  END
> <i_m_stars>
0

> <r_user_dG.exp>
-8.483096

$$$$
18627-1
  -OEChem-05192314073D
 Structure written by MMmdl.
 38 39  0     0  0  0  0  0  0999 V2000
   24.0455   12.2310   30.2644 C   0  0  0  0  0  0  0  0  0  0  0  0
   23.3145   10.9118   30.5250 C   0  0  0  0  0  0  0  0  0  0  0  0
   22.1664   11.2000   31.3187 O   0  0  0  0  0  0  0  0  0  0  0  0
   21.3513   10.1659   31.7455 C   0  0  0  0  0  0  0  0  0  0  0  0
   21.6956    8.9024   31.3722 N   0  0  0  0  0  0  0  0  0  0  0  0
   20.9003    7.8904   31.7476 C   0  0  0  0  0  0  0  0  0  0  0  0
   19.7671    8.0627   32.5273 C   0  0  0  0  0  0  0  0  0  0  0  0
   19.4228    9.3455   32.9112 C   0  0  0  0  0  0  0  0  0  0  0  0
   18.2685    9.4486   33.6770 N   0  0  0  0  0  0  0  0  0  0  0  0
   20.2166   10.4359   32.5197 C   0  0  0  0  0  0  0  0  0  0  0  0
   19.9034   11.8154   32.8755 C   0  0  0  0  0  0  0  0  0  0  0  0
   19.6627   12.9133   33.1535 N   0  0  0  0  0  0  0  0  0  0  0  0
   21.3886    6.6799   31.3021 N   0  0  0  0  0  0  0  0  0  0  0  0
   20.7526    5.5183   31.1147 C   0  0  0  0  0  0  0  0  0  0  0  0
   19.5388    5.3838   31.2541 O   0  0  0  0  0  0  0  0  0  0  0  0
   21.5779    4.2945   30.6927 C   0  0  0  0  0  0  0  0  0  0  0  0
   23.0905    4.5085   30.6435 C   0  0  0  0  0  0  0  0  0  0  0  0
   23.6658    5.3064   29.6460 C   0  0  0  0  0  0  0  0  0  0  0  0
   25.0464    5.5098   29.6200 C   0  0  0  0  0  0  0  0  0  0  0  0
   25.8561    4.9156   30.5871 C   0  0  0  0  0  0  0  0  0  0  0  0
   27.5599    5.1731   30.5675 Cl  0  0  0  0  0  0  0  0  0  0  0  0
   25.2884    4.1164   31.5778 C   0  0  0  0  0  0  0  0  0  0  0  0
   23.9087    3.9120   31.6076 C   0  0  0  0  0  0  0  0  0  0  0  0
   24.9393   12.0408   29.6521 H   0  0  0  0  0  0  0  0  0  0  0  0
   23.3760   12.9219   29.7310 H   0  0  0  0  0  0  0  0  0  0  0  0
   24.3464   12.6789   31.2230 H   0  0  0  0  0  0  0  0  0  0  0  0
   23.0060   10.4600   29.5707 H   0  0  0  0  0  0  0  0  0  0  0  0
   23.9764   10.2170   31.0627 H   0  0  0  0  0  0  0  0  0  0  0  0
   19.1680    7.2157   32.8275 H   0  0  0  0  0  0  0  0  0  0  0  0
   18.1032   10.4083   33.9040 H   0  0  0  0  0  0  0  0  0  0  0  0
   17.4918    9.0901   33.1590 H   0  0  0  0  0  0  0  0  0  0  0  0
   19.2967    4.4831   31.0733 H   0  0  0  0  0  0  0  0  0  0  0  0
   21.3730    3.4841   31.4078 H   0  0  0  0  0  0  0  0  0  0  0  0
   21.2454    3.9907   29.6891 H   0  0  0  0  0  0  0  0  0  0  0  0
   23.0395    5.7653   28.8953 H   0  0  0  0  0  0  0  0  0  0  0  0
   25.4872    6.1271   28.8512 H   0  0  0  0  0  0  0  0  0  0  0  0
   25.9179    3.6544   32.3239 H   0  0  0  0  0  0  0  0  0  0  0  0
   23.4720    3.2920   32.3766 H   0  0  0  0  0  0  0  0  0  0  0  0
  1  2  1  0  0  0  0
  2  3  1  0  0  0  0
  3  4  1  0  0  0  0
  4 10  2  0  0  0  0
  4  5  1  0  0  0  0
  5  6  2  0  0  0  0
  6  7  1  0  0  0  0
  6 13  1  0  0  0  0
  7  8  2  0  0  0  0
  8  9  1  0  0  0  0
  8 10  1  0  0  0  0
 10 11  1  0  0  0  0
 11 12  3  0  0  0  0
 13 14  2  0  0  0  0
 14 15  1  0  0  0  0
 14 16  1  0  0  0  0
 16 17  1  0  0  0  0
 17 23  2  0  0  0  0
 17 18  1  0  0  0  0
 18 19  2  0  0  0  0
 19 20  1  0  0  0  0
 20 21  1  0  0  0  0
 20 22  2  0  0  0  0
 22 23  1  0  0  0  0
  1 24  1  0  0  0  0
  1 25  1  0  0  0  0
  1 26  1  0  0  0  0
  2 27  1  0  0  0  0
  2 28  1  0  0  0  0
  7 29  1  0  0  0  0
  9 30  1  0  0  0  0
  9 31  1  0  0  0  0
 15 32  1  0  0  0  0
 16 33  1  0  0  0  0
 16 34  1  0  0  0  0
 18 35  1  0  0  0  0
 19 36  1  0  0  0  0
 22 37  1  0  0  0  0
 23 38  1  0  0  0  0
M  END
> <i_m_stars>
0

> <r_user_dG.exp>
-8.483096

$$$$
18627-1
  -OEChem-05192314073D
 Structure written by MMmdl.
 38 39  0     0  0  0  0  0  0999 V2000
   24.0455   12.2310   30.2644 C   0  0  0  0  0  0  0  0  0  0  0  0
   23.3145   10.9118   30.5250 C   0  0  0  0  0  0  0  0  0  0  0  0
   22.1664   11.2000   31.3187 O   0  0  0  0  0  0  0  0  0  0  0  0
   21.3513   10.1659   31.7455 C   0  0  0  0  0  0  0  0  0  0  0  0
   21.6956    8.9024   31.3722 N   0  0  0  0  0  0  0  0  0  0  0  0
   20.9003    7.8904   31.7476 C   0  0  0  0  0  0  0  0  0  0  0  0
   19.7671    8.0627   32.5273 C   0  0  0  0  0  0  0  0  0  0  0  0
   19.4228    9.3455   32.9112 C   0  0  0  0  0  0  0  0  0  0  0  0
   18.2685    9.4486   33.6770 N   0  0  0  0  0  0  0  0  0  0  0  0
   20.2166   10.4359   32.5197 C   0  0  0  0  0  0  0  0  0  0  0  0
   19.9034   11.8154   32.8755 C   0  0  0  0  0  0  0  0  0  0  0  0
   19.6627   12.9133   33.1535 N   0  0  0  0  0  0  0  0  0  0  0  0
   21.3886    6.6799   31.3021 N   0  0  0  0  0  0  0  0  0  0  0  0
   20.7526    5.5183   31.1147 C   0  0  0  0  0  0  0  0  0  0  0  0
   19.5388    5.3838   31.2541 O   0  0  0  0  0  0  0  0  0  0  0  0
   21.5779    4.2945   30.6927 C   0  0  0  0  0  0  0  0  0  0  0  0
   23.0905    4.5085   30.6435 C   0  0  0  0  0  0  0  0  0  0  0  0
   23.6658    5.3064   29.6460 C   0  0  0  0  0  0  0  0  0  0  0  0
   25.0464    5.5098   29.6200 C   0  0  0  0  0  0  0  0  0  0  0  0
   25.8561    4.9156   30.5871 C   0  0  0  0  0  0  0  0  0  0  0  0
   27.5599    5.1731   30.5675 Cl  0  0  0  0  0  0  0  0  0  0  0  0
   25.2884    4.1164   31.5778 C   0  0  0  0  0  0  0  0  0  0  0  0
   23.9087    3.9120   31.6076 C   0  0  0  0  0  0  0  0  0  0  0  0
   24.9393   12.0408   29.6521 H   0  0  0  0  0  0  0  0  0  0  0  0
   23.3760   12.9219   29.7310 H   0  0  0  0  0  0  0  0  0  0  0  0
   24.3464   12.6789   31.2230 H   0  0  0  0  0  0  0  0  0  0  0  0
   23.0060   10.4600   29.5707 H   0  0  0  0  0  0  0  0  0  0  0  0
   23.9764   10.2170   31.0627 H   0  0  0  0  0  0  0  0  0  0  0  0
   22.5202    8.7337   30.8321 H   0  0  0  0  0  0  0  0  0  0  0  0
   19.1680    7.2157   32.8275 H   0  0  0  0  0  0  0  0  0  0  0  0
   18.0641   10.3966   33.9208 H   0  0  0  0  0  0  0  0  0  0  0  0
   22.3651    6.6691   31.0868 H   0  0  0  0  0  0  0  0  0  0  0  0
   21.3730    3.4841   31.4078 H   0  0  0  0  0  0  0  0  0  0  0  0
   21.2454    3.9907   29.6891 H   0  0  0  0  0  0  0  0  0  0  0  0
   23.0395    5.7653   28.8953 H   0  0  0  0  0  0  0  0  0  0  0  0
   25.4872    6.1271   28.8512 H   0  0  0  0  0  0  0  0  0  0  0  0
   25.9179    3.6544   32.3239 H   0  0  0  0  0  0  0  0  0  0  0  0
   23.4720    3.2920   32.3766 H   0  0  0  0  0  0  0  0  0  0  0  0
  1  2  1  0  0  0  0
  2  3  1  0  0  0  0
  3  4  1  0  0  0  0
  4 10  2  0  0  0  0
  4  5  1  0  0  0  0
  5  6  1  0  0  0  0
  6  7  2  0  0  0  0
  6 13  1  0  0  0  0
  7  8  1  0  0  0  0
  8  9  2  0  0  0  0
  8 10  1  0  0  0  0
 10 11  1  0  0  0  0
 11 12  3  0  0  0  0
 13 14  1  0  0  0  0
 14 15  2  0  0  0  0
 14 16  1  0  0  0  0
 16 17  1  0  0  0  0
 17 23  2  0  0  0  0
 17 18  1  0  0  0  0
 18 19  2  0  0  0  0
 19 20  1  0  0  0  0
 20 21  1  0  0  0  0
 20 22  2  0  0  0  0
 22 23  1  0  0  0  0
  1 24  1  0  0  0  0
  1 25  1  0  0  0  0
  1 26  1  0  0  0  0
  2 27  1  0  0  0  0
  2 28  1  0  0  0  0
  5 29  1  0  0  0  0
  7 30  1  0  0  0  0
  9 31  1  0  0  0  0
 13 32  1  0  0  0  0
 16 33  1  0  0  0  0
 16 34  1  0  0  0  0
 18 35  1  0  0  0  0
 19 36  1  0  0  0  0
 22 37  1  0  0  0  0
 23 38  1  0  0  0  0
M  END
> <i_m_stars>
0

> <r_user_dG.exp>
-8.483096

$$$$
18627-1
  -OEChem-05192314073D
 Structure written by MMmdl.
 38 39  0     0  0  0  0  0  0999 V2000
   24.0455   12.2310   30.2644 C   0  0  0  0  0  0  0  0  0  0  0  0
   23.3145   10.9118   30.5250 C   0  0  0  0  0  0  0  0  0  0  0  0
   22.1664   11.2000   31.3187 O   0  0  0  0  0  0  0  0  0  0  0  0
   21.3513   10.1659   31.7455 C   0  0  0  0  0  0  0  0  0  0  0  0
   21.6956    8.9024   31.3722 N   0  0  0  0  0  0  0  0  0  0  0  0
   20.9003    7.8904   31.7476 C   0  0  0  0  0  0  0  0  0  0  0  0
   19.7671    8.0627   32.5273 C   0  0  0  0  0  0  0  0  0  0  0  0
   19.4228    9.3455   32.9112 C   0  0  0  0  0  0  0  0  0  0  0  0
   18.2685    9.4486   33.6770 N   0  0  0  0  0  0  0  0  0  0  0  0
   20.2166   10.4359   32.5197 C   0  0  0  0  0  0  0  0  0  0  0  0
   19.9034   11.8154   32.8755 C   0  0  0  0  0  0  0  0  0  0  0  0
   19.6627   12.9133   33.1535 N   0  0  0  0  0  0  0  0  0  0  0  0
   21.3886    6.6799   31.3021 N   0  0  0  0  0  0  0  0  0  0  0  0
   20.7526    5.5183   31.1147 C   0  0  0  0  0  0  0  0  0  0  0  0
   19.5388    5.3838   31.2541 O   0  0  0  0  0  0  0  0  0  0  0  0
   21.5779    4.2945   30.6927 C   0  0  0  0  0  0  0  0  0  0  0  0
   23.0905    4.5085   30.6435 C   0  0  0  0  0  0  0  0  0  0  0  0
   23.6658    5.3064   29.6460 C   0  0  0  0  0  0  0  0  0  0  0  0
   25.0464    5.5098   29.6200 C   0  0  0  0  0  0  0  0  0  0  0  0
   25.8561    4.9156   30.5871 C   0  0  0  0  0  0  0  0  0  0  0  0
   27.5599    5.1731   30.5675 Cl  0  0  0  0  0  0  0  0  0  0  0  0
   25.2884    4.1164   31.5778 C   0  0  0  0  0  0  0  0  0  0  0  0
   23.9087    3.9120   31.6076 C   0  0  0  0  0  0  0  0  0  0  0  0
   24.9393   12.0408   29.6521 H   0  0  0  0  0  0  0  0  0  0  0  0
   23.3760   12.9219   29.7310 H   0  0  0  0  0  0  0  0  0  0  0  0
   24.3464   12.6789   31.2230 H   0  0  0  0  0  0  0  0  0  0  0  0
   23.0060   10.4600   29.5707 H   0  0  0  0  0  0  0  0  0  0  0  0
   23.9764   10.2170   31.0627 H   0  0  0  0  0  0  0  0  0  0  0  0
   22.5202    8.7337   30.8321 H   0  0  0  0  0  0  0  0  0  0  0  0
   19.1680    7.2157   32.8275 H   0  0  0  0  0  0  0  0  0  0  0  0
   18.1032   10.4083   33.9040 H   0  0  0  0  0  0  0  0  0  0  0  0
   17.4918    9.0901   33.1590 H   0  0  0  0  0  0  0  0  0  0  0  0
   21.3730    3.4841   31.4078 H   0  0  0  0  0  0  0  0  0  0  0  0
   21.2454    3.9907   29.6891 H   0  0  0  0  0  0  0  0  0  0  0  0
   23.0395    5.7653   28.8953 H   0  0  0  0  0  0  0  0  0  0  0  0
   25.4872    6.1271   28.8512 H   0  0  0  0  0  0  0  0  0  0  0  0
   25.9179    3.6544   32.3239 H   0  0  0  0  0  0  0  0  0  0  0  0
   23.4720    3.2920   32.3766 H   0  0  0  0  0  0  0  0  0  0  0  0
  1  2  1  0  0  0  0
  2  3  1  0  0  0  0
  3  4  1  0  0  0  0
  4 10  2  0  0  0  0
  4  5  1  0  0  0  0
  5  6  1  0  0  0  0
  6  7  1  0  0  0  0
  6 13  2  0  0  0  0
  7  8  2  0  0  0  0
  8  9  1  0  0  0  0
  8 10  1  0  0  0  0
 10 11  1  0  0  0  0
 11 12  3  0  0  0  0
 13 14  1  0  0  0  0
 14 15  2  0  0  0  0
 14 16  1  0  0  0  0
 16 17  1  0  0  0  0
 17 23  2  0  0  0  0
 17 18  1  0  0  0  0
 18 19  2  0  0  0  0
 19 20  1  0  0  0  0
 20 21  1  0  0  0  0
 20 22  2  0  0  0  0
 22 23  1  0  0  0  0
  1 24  1  0  0  0  0
  1 25  1  0  0  0  0
  1 26  1  0  0  0  0
  2 27  1  0  0  0  0
  2 28  1  0  0  0  0
  5 29  1  0  0  0  0
  7 30  1  0  0  0  0
  9 31  1  0  0  0  0
  9 32  1  0  0  0  0
 16 33  1  0  0  0  0
 16 34  1  0  0  0  0
 18 35  1  0  0  0  0
 19 36  1  0  0  0  0
 22 37  1  0  0  0  0
 23 38  1  0  0  0  0
M  END
> <i_m_stars>
0

> <r_user_dG.exp>
-8.483096

$$$$
18627-1
  -OEChem-05192314073D
 Structure written by MMmdl.
 38 39  0     0  0  0  0  0  0999 V2000
   24.0455   12.2310   30.2644 C   0  0  0  0  0  0  0  0  0  0  0  0
   23.3145   10.9118   30.5250 C   0  0  0  0  0  0  0  0  0  0  0  0
   22.1664   11.2000   31.3187 O   0  0  0  0  0  0  0  0  0  0  0  0
   21.3513   10.1659   31.7455 C   0  0  0  0  0  0  0  0  0  0  0  0
   21.6956    8.9024   31.3722 N   0  0  0  0  0  0  0  0  0  0  0  0
   20.9003    7.8904   31.7476 C   0  0  0  0  0  0  0  0  0  0  0  0
   19.7671    8.0627   32.5273 C   0  0  0  0  0  0  0  0  0  0  0  0
   19.4228    9.3455   32.9112 C   0  0  0  0  0  0  0  0  0  0  0  0
   18.2685    9.4486   33.6770 N   0  0  0  0  0  0  0  0  0  0  0  0
   20.2166   10.4359   32.5197 C   0  0  0  0  0  0  0  0  0  0  0  0
   19.9034   11.8154   32.8755 C   0  0  0  0  0  0  0  0  0  0  0  0
   19.6627   12.9133   33.1535 N   0  0  0  0  0  0  0  0  0  0  0  0
   21.3886    6.6799   31.3021 N   0  0  0  0  0  0  0  0  0  0  0  0
   20.7526    5.5183   31.1147 C   0  0  0  0  0  0  0  0  0  0  0  0
   19.5388    5.3838   31.2541 O   0  0  0  0  0  0  0  0  0  0  0  0
   21.5779    4.2945   30.6927 C   0  0  0  0  0  0  0  0  0  0  0  0
   23.0905    4.5085   30.6435 C   0  0  0  0  0  0  0  0  0  0  0  0
   23.6658    5.3064   29.6460 C   0  0  0  0  0  0  0  0  0  0  0  0
   25.0464    5.5098   29.6200 C   0  0  0  0  0  0  0  0  0  0  0  0
   25.8561    4.9156   30.5871 C   0  0  0  0  0  0  0  0  0  0  0  0
   27.5599    5.1731   30.5675 Cl  0  0  0  0  0  0  0  0  0  0  0  0
   25.2884    4.1164   31.5778 C   0  0  0  0  0  0  0  0  0  0  0  0
   23.9087    3.9120   31.6076 C   0  0  0  0  0  0  0  0  0  0  0  0
   24.9393   12.0408   29.6521 H   0  0  0  0  0  0  0  0  0  0  0  0
   23.3760   12.9219   29.7310 H   0  0  0  0  0  0  0  0  0  0  0  0
   24.3464   12.6789   31.2230 H   0  0  0  0  0  0  0  0  0  0  0  0
   23.0060   10.4600   29.5707 H   0  0  0  0  0  0  0  0  0  0  0  0
   23.9764   10.2170   31.0627 H   0  0  0  0  0  0  0  0  0  0  0  0
   22.5202    8.7337   30.8321 H   0  0  0  0  0  0  0  0  0  0  0  0
   19.1680    7.2157   32.8275 H   0  0  0  0  0  0  0  0  0  0  0  0
   18.0641   10.3966   33.9208 H   0  0  0  0  0  0  0  0  0  0  0  0
   19.2967    4.4831   31.0733 H   0  0  0  0  0  0  0  0  0  0  0  0
   21.3730    3.4841   31.4078 H   0  0  0  0  0  0  0  0  0  0  0  0
   21.2454    3.9907   29.6891 H   0  0  0  0  0  0  0  0  0  0  0  0
   23.0395    5.7653   28.8953 H   0  0  0  0  0  0  0  0  0  0  0  0
   25.4872    6.1271   28.8512 H   0  0  0  0  0  0  0  0  0  0  0  0
   25.9179    3.6544   32.3239 H   0  0  0  0  0  0  0  0  0  0  0  0
   23.4720    3.2920   32.3766 H   0  0  0  0  0  0  0  0  0  0  0  0
  1  2  1  0  0  0  0
  2  3  1  0  0  0  0
  3  4  1  0  0  0  0
  4 10  2  0  0  0  0
  4  5  1  0  0  0  0
  5  6  1  0  0  0  0
  6  7  2  0  0  0  0
  6 13  1  0  0  0  0
  7  8  1  0  0  0  0
  8  9  2  0  0  0  0
  8 10  1  0  0  0  0
 10 11  1  0  0  0  0
 11 12  3  0  0  0  0
 13 14  2  0  0  0  0
 14 15  1  0  0  0  0
 14 16  1  0  0  0  0
 16 17  1  0  0  0  0
 17 23  2  0  0  0  0
 17 18  1  0  0  0  0
 18 19  2  0  0  0  0
 19 20  1  0  0  0  0
 20 21  1  0  0  0  0
 20 22  2  0  0  0  0
 22 23  1  0  0  0  0
  1 24  1  0  0  0  0
  1 25  1  0  0  0  0
  1 26  1  0  0  0  0
  2 27  1  0  0  0  0
  2 28  1  0  0  0  0
  5 29  1  0  0  0  0
  7 30  1  0  0  0  0
  9 31  1  0  0  0  0
 15 32  1  0  0  0  0
 16 33  1  0  0  0  0
 16 34  1  0  0  0  0
 18 35  1  0  0  0  0
 19 36  1  0  0  0  0
 22 37  1  0  0  0  0
 23 38  1  0  0  0  0
M  END
> <i_m_stars>
0

> <r_user_dG.exp>
-8.483096

$$$$
18627-1
  -OEChem-05192314073D
 Structure written by MMmdl.
 38 39  0     1  0  0  0  0  0999 V2000
   24.0455   12.2310   30.2644 C   0  0  0  0  0  0  0  0  0  0  0  0
   23.3145   10.9118   30.5250 C   0  0  0  0  0  0  0  0  0  0  0  0
   22.1664   11.2000   31.3187 O   0  0  0  0  0  0  0  0  0  0  0  0
   21.3513   10.1659   31.7455 C   0  0  0  0  0  0  0  0  0  0  0  0
   21.6956    8.9024   31.3722 N   0  0  0  0  0  0  0  0  0  0  0  0
   20.9003    7.8904   31.7476 C   0  0  0  0  0  0  0  0  0  0  0  0
   19.7671    8.0627   32.5273 C   0  0  0  0  0  0  0  0  0  0  0  0
   19.4228    9.3455   32.9112 C   0  0  0  0  0  0  0  0  0  0  0  0
   18.2685    9.4486   33.6770 N   0  0  0  0  0  0  0  0  0  0  0  0
   20.2166   10.4359   32.5197 C   0  0  3  0  0  0  0  0  0  0  0  0
   19.9034   11.8154   32.8755 C   0  0  0  0  0  0  0  0  0  0  0  0
   19.6627   12.9133   33.1535 N   0  0  0  0  0  0  0  0  0  0  0  0
   21.3886    6.6799   31.3021 N   0  0  0  0  0  0  0  0  0  0  0  0
   20.7526    5.5183   31.1147 C   0  0  0  0  0  0  0  0  0  0  0  0
   19.5388    5.3838   31.2541 O   0  0  0  0  0  0  0  0  0  0  0  0
   21.5779    4.2945   30.6927 C   0  0  0  0  0  0  0  0  0  0  0  0
   23.0905    4.5085   30.6435 C   0  0  0  0  0  0  0  0  0  0  0  0
   23.6658    5.3064   29.6460 C   0  0  0  0  0  0  0  0  0  0  0  0
   25.0464    5.5098   29.6200 C   0  0  0  0  0  0  0  0  0  0  0  0
   25.8561    4.9156   30.5871 C   0  0  0  0  0  0  0  0  0  0  0  0
   27.5599    5.1731   30.5675 Cl  0  0  0  0  0  0  0  0  0  0  0  0
   25.2884    4.1164   31.5778 C   0  0  0  0  0  0  0  0  0  0  0  0
   23.9087    3.9120   31.6076 C   0  0  0  0  0  0  0  0  0  0  0  0
   24.9393   12.0408   29.6521 H   0  0  0  0  0  0  0  0  0  0  0  0
   23.3760   12.9219   29.7310 H   0  0  0  0  0  0  0  0  0  0  0  0
   24.3464   12.6789   31.2230 H   0  0  0  0  0  0  0  0  0  0  0  0
   23.0060   10.4600   29.5707 H   0  0  0  0  0  0  0  0  0  0  0  0
   23.9764   10.2170   31.0627 H   0  0  0  0  0  0  0  0  0  0  0  0
   18.9174    7.6534   31.9613 H   0  0  0  0  0  0  0  0  0  0  0  0
   19.9122    7.4759   33.4464 H   0  0  0  0  0  0  0  0  0  0  0  0
   18.0641   10.3966   33.9208 H   0  0  0  0  0  0  0  0  0  0  0  0
   20.8149   10.3327   33.4370 H   0  0  0  0  0  0  0  0  0  0  0  0
   21.3730    3.4841   31.4078 H   0  0  0  0  0  0  0  0  0  0  0  0
   21.2454    3.9907   29.6891 H   0  0  0  0  0  0  0  0  0  0  0  0
   23.0395    5.7653   28.8953 H   0  0  0  0  0  0  0  0  0  0  0  0
   25.4872    6.1271   28.8512 H   0  0  0  0  0  0  0  0  0  0  0  0
   25.9179    3.6544   32.3239 H   0  0  0  0  0  0  0  0  0  0  0  0
   23.4720    3.2920   32.3766 H   0  0  0  0  0  0  0  0  0  0  0  0
  1  2  1  0  0  0  0
  2  3  1  0  0  0  0
  3  4  1  0  0  0  0
  4 10  1  0  0  0  0
  4  5  2  0  0  0  0
  5  6  1  0  0  0  0
  6  7  1  0  0  0  0
  6 13  2  0  0  0  0
  7  8  1  0  0  0  0
  8  9  2  0  0  0  0
  8 10  1  0  0  0  0
 10 11  1  0  0  0  0
 11 12  3  0  0  0  0
 13 14  1  0  0  0  0
 14 15  2  0  0  0  0
 14 16  1  0  0  0  0
 16 17  1  0  0  0  0
 17 23  2  0  0  0  0
 17 18  1  0  0  0  0
 18 19  2  0  0  0  0
 19 20  1  0  0  0  0
 20 21  1  0  0  0  0
 20 22  2  0  0  0  0
 22 23  1  0  0  0  0
  1 24  1  0  0  0  0
  1 25  1  0  0  0  0
  1 26  1  0  0  0  0
  2 27  1  0  0  0  0
  2 28  1  0  0  0  0
  7 29  1  0  0  0  0
  7 30  1  0  0  0  0
  9 31  1  0  0  0  0
 10 32  1  0  0  0  0
 16 33  1  0  0  0  0
 16 34  1  0  0  0  0
 18 35  1  0  0  0  0
 19 36  1  0  0  0  0
 22 37  1  0  0  0  0
 23 38  1  0  0  0  0
M  END
> <i_m_stars>
0

> <r_user_dG.exp>
-8.483096

$$$$
18627-1
  -OEChem-05192314073D
 Structure written by MMmdl.
 38 39  0     1  0  0  0  0  0999 V2000
   24.0455   12.2310   30.2644 C   0  0  0  0  0  0  0  0  0  0  0  0
   23.3145   10.9118   30.5250 C   0  0  0  0  0  0  0  0  0  0  0  0
   22.1664   11.2000   31.3187 O   0  0  0  0  0  0  0  0  0  0  0  0
   21.3513   10.1659   31.7455 C   0  0  0  0  0  0  0  0  0  0  0  0
   21.6956    8.9024   31.3722 N   0  0  0  0  0  0  0  0  0  0  0  0
   20.9003    7.8904   31.7476 C   0  0  0  0  0  0  0  0  0  0  0  0
   19.7671    8.0627   32.5273 C   0  0  0  0  0  0  0  0  0  0  0  0
   19.4228    9.3455   32.9112 C   0  0  0  0  0  0  0  0  0  0  0  0
   18.2685    9.4486   33.6770 N   0  0  0  0  0  0  0  0  0  0  0  0
   20.2166   10.4359   32.5197 C   0  0  3  0  0  0  0  0  0  0  0  0
   19.9034   11.8154   32.8755 C   0  0  0  0  0  0  0  0  0  0  0  0
   19.6627   12.9133   33.1535 N   0  0  0  0  0  0  0  0  0  0  0  0
   21.3886    6.6799   31.3021 N   0  0  0  0  0  0  0  0  0  0  0  0
   20.7526    5.5183   31.1147 C   0  0  0  0  0  0  0  0  0  0  0  0
   19.5388    5.3838   31.2541 O   0  0  0  0  0  0  0  0  0  0  0  0
   21.5779    4.2945   30.6927 C   0  0  0  0  0  0  0  0  0  0  0  0
   23.0905    4.5085   30.6435 C   0  0  0  0  0  0  0  0  0  0  0  0
   23.6658    5.3064   29.6460 C   0  0  0  0  0  0  0  0  0  0  0  0
   25.0464    5.5098   29.6200 C   0  0  0  0  0  0  0  0  0  0  0  0
   25.8561    4.9156   30.5871 C   0  0  0  0  0  0  0  0  0  0  0  0
   27.5599    5.1731   30.5675 Cl  0  0  0  0  0  0  0  0  0  0  0  0
   25.2884    4.1164   31.5778 C   0  0  0  0  0  0  0  0  0  0  0  0
   23.9087    3.9120   31.6076 C   0  0  0  0  0  0  0  0  0  0  0  0
   24.9393   12.0408   29.6521 H   0  0  0  0  0  0  0  0  0  0  0  0
   23.3760   12.9219   29.7310 H   0  0  0  0  0  0  0  0  0  0  0  0
   24.3464   12.6789   31.2230 H   0  0  0  0  0  0  0  0  0  0  0  0
   23.0060   10.4600   29.5707 H   0  0  0  0  0  0  0  0  0  0  0  0
   23.9764   10.2170   31.0627 H   0  0  0  0  0  0  0  0  0  0  0  0
   19.1680    7.2157   32.8275 H   0  0  0  0  0  0  0  0  0  0  0  0
   18.0641   10.3966   33.9208 H   0  0  0  0  0  0  0  0  0  0  0  0
   20.8149   10.3327   33.4370 H   0  0  0  0  0  0  0  0  0  0  0  0
   22.3651    6.6691   31.0868 H   0  0  0  0  0  0  0  0  0  0  0  0
   21.3730    3.4841   31.4078 H   0  0  0  0  0  0  0  0  0  0  0  0
   21.2454    3.9907   29.6891 H   0  0  0  0  0  0  0  0  0  0  0  0
   23.0395    5.7653   28.8953 H   0  0  0  0  0  0  0  0  0  0  0  0
   25.4872    6.1271   28.8512 H   0  0  0  0  0  0  0  0  0  0  0  0
   25.9179    3.6544   32.3239 H   0  0  0  0  0  0  0  0  0  0  0  0
   23.4720    3.2920   32.3766 H   0  0  0  0  0  0  0  0  0  0  0  0
  1  2  1  0  0  0  0
  2  3  1  0  0  0  0
  3  4  1  0  0  0  0
  4 10  1  0  0  0  0
  4  5  2  0  0  0  0
  5  6  1  0  0  0  0
  6  7  2  0  0  0  0
  6 13  1  0  0  0  0
  7  8  1  0  0  0  0
  8  9  2  0  0  0  0
  8 10  1  0  0  0  0
 10 11  1  0  0  0  0
 11 12  3  0  0  0  0
 13 14  1  0  0  0  0
 14 15  2  0  0  0  0
 14 16  1  0  0  0  0
 16 17  1  0  0  0  0
 17 23  2  0  0  0  0
 17 18  1  0  0  0  0
 18 19  2  0  0  0  0
 19 20  1  0  0  0  0
 20 21  1  0  0  0  0
 20 22  2  0  0  0  0
 22 23  1  0  0  0  0
  1 24  1  0  0  0  0
  1 25  1  0  0  0  0
  1 26  1  0  0  0  0
  2 27  1  0  0  0  0
  2 28  1  0  0  0  0
  7 29  1  0  0  0  0
  9 30  1  0  0  0  0
 10 31  1  0  0  0  0
 13 32  1  0  0  0  0
 16 33  1  0  0  0  0
 16 34  1  0  0  0  0
 18 35  1  0  0  0  0
 19 36  1  0  0  0  0
 22 37  1  0  0  0  0
 23 38  1  0  0  0  0
M  END
> <i_m_stars>
0

> <r_user_dG.exp>
-8.483096

$$$$
18627-1
  -OEChem-05192314073D
 Structure written by MMmdl.
 38 39  0     0  0  0  0  0  0999 V2000
   24.0455   12.2310   30.2644 C   0  0  0  0  0  0  0  0  0  0  0  0
   23.3145   10.9118   30.5250 C   0  0  0  0  0  0  0  0  0  0  0  0
   22.1664   11.2000   31.3187 O   0  0  0  0  0  0  0  0  0  0  0  0
   21.3513   10.1659   31.7455 C   0  0  0  0  0  0  0  0  0  0  0  0
   21.6956    8.9024   31.3722 N   0  0  0  0  0  0  0  0  0  0  0  0
   20.9003    7.8904   31.7476 C   0  0  0  0  0  0  0  0  0  0  0  0
   19.7671    8.0627   32.5273 C   0  0  0  0  0  0  0  0  0  0  0  0
   19.4228    9.3455   32.9112 C   0  0  0  0  0  0  0  0  0  0  0  0
   18.2685    9.4486   33.6770 N   0  0  0  0  0  0  0  0  0  0  0  0
   20.2166   10.4359   32.5197 C   0  0  0  0  0  0  0  0  0  0  0  0
   19.9034   11.8154   32.8755 C   0  0  0  0  0  0  0  0  0  0  0  0
   19.6627   12.9133   33.1535 N   0  0  0  0  0  0  0  0  0  0  0  0
   21.3886    6.6799   31.3021 N   0  0  0  0  0  0  0  0  0  0  0  0
   20.7526    5.5183   31.1147 C   0  0  0  0  0  0  0  0  0  0  0  0
   19.5388    5.3838   31.2541 O   0  0  0  0  0  0  0  0  0  0  0  0
   21.5779    4.2945   30.6927 C   0  0  0  0  0  0  0  0  0  0  0  0
   23.0905    4.5085   30.6435 C   0  0  0  0  0  0  0  0  0  0  0  0
   23.6658    5.3064   29.6460 C   0  0  0  0  0  0  0  0  0  0  0  0
   25.0464    5.5098   29.6200 C   0  0  0  0  0  0  0  0  0  0  0  0
   25.8561    4.9156   30.5871 C   0  0  0  0  0  0  0  0  0  0  0  0
   27.5599    5.1731   30.5675 Cl  0  0  0  0  0  0  0  0  0  0  0  0
   25.2884    4.1164   31.5778 C   0  0  0  0  0  0  0  0  0  0  0  0
   23.9087    3.9120   31.6076 C   0  0  0  0  0  0  0  0  0  0  0  0
   24.9393   12.0408   29.6521 H   0  0  0  0  0  0  0  0  0  0  0  0
   23.3760   12.9219   29.7310 H   0  0  0  0  0  0  0  0  0  0  0  0
   24.3464   12.6789   31.2230 H   0  0  0  0  0  0  0  0  0  0  0  0
   23.0060   10.4600   29.5707 H   0  0  0  0  0  0  0  0  0  0  0  0
   23.9764   10.2170   31.0627 H   0  0  0  0  0  0  0  0  0  0  0  0
   18.9174    7.6534   31.9613 H   0  0  0  0  0  0  0  0  0  0  0  0
   19.9122    7.4759   33.4464 H   0  0  0  0  0  0  0  0  0  0  0  0
   18.0641   10.3966   33.9208 H   0  0  0  0  0  0  0  0  0  0  0  0
   22.3651    6.6691   31.0868 H   0  0  0  0  0  0  0  0  0  0  0  0
   21.3730    3.4841   31.4078 H   0  0  0  0  0  0  0  0  0  0  0  0
   21.2454    3.9907   29.6891 H   0  0  0  0  0  0  0  0  0  0  0  0
   23.0395    5.7653   28.8953 H   0  0  0  0  0  0  0  0  0  0  0  0
   25.4872    6.1271   28.8512 H   0  0  0  0  0  0  0  0  0  0  0  0
   25.9179    3.6544   32.3239 H   0  0  0  0  0  0  0  0  0  0  0  0
   23.4720    3.2920   32.3766 H   0  0  0  0  0  0  0  0  0  0  0  0
  1  2  1  0  0  0  0
  2  3  1  0  0  0  0
  3  4  1  0  0  0  0
  4 10  2  0  0  0  0
  4  5  1  0  0  0  0
  5  6  2  0  0  0  0
  6  7  1  0  0  0  0
  6 13  1  0  0  0  0
  7  8  1  0  0  0  0
  8  9  2  0  0  0  0
  8 10  1  0  0  0  0
 10 11  1  0  0  0  0
 11 12  3  0  0  0  0
 13 14  1  0  0  0  0
 14 15  2  0  0  0  0
 14 16  1  0  0  0  0
 16 17  1  0  0  0  0
 17 23  2  0  0  0  0
 17 18  1  0  0  0  0
 18 19  2  0  0  0  0
 19 20  1  0  0  0  0
 20 21  1  0  0  0  0
 20 22  2  0  0  0  0
 22 23  1  0  0  0  0
  1 24  1  0  0  0  0
  1 25  1  0  0  0  0
  1 26  1  0  0  0  0
  2 27  1  0  0  0  0
  2 28  1  0  0  0  0
  7 29  1  0  0  0  0
  7 30  1  0  0  0  0
  9 31  1  0  0  0  0
 13 32  1  0  0  0  0
 16 33  1  0  0  0  0
 16 34  1  0  0  0  0
 18 35  1  0  0  0  0
 19 36  1  0  0  0  0
 22 37  1  0  0  0  0
 23 38  1  0  0  0  0
M  END
> <i_m_stars>
0

> <r_user_dG.exp>
-8.483096

$$$$
18627-1
  -OEChem-05192314073D
 Structure written by MMmdl.
 38 39  0     1  0  0  0  0  0999 V2000
   24.0455   12.2310   30.2644 C   0  0  0  0  0  0  0  0  0  0  0  0
   23.3145   10.9118   30.5250 C   0  0  0  0  0  0  0  0  0  0  0  0
   22.1664   11.2000   31.3187 O   0  0  0  0  0  0  0  0  0  0  0  0
   21.3513   10.1659   31.7455 C   0  0  0  0  0  0  0  0  0  0  0  0
   21.6956    8.9024   31.3722 N   0  0  0  0  0  0  0  0  0  0  0  0
   20.9003    7.8904   31.7476 C   0  0  0  0  0  0  0  0  0  0  0  0
   19.7671    8.0627   32.5273 C   0  0  0  0  0  0  0  0  0  0  0  0
   19.4228    9.3455   32.9112 C   0  0  0  0  0  0  0  0  0  0  0  0
   18.2685    9.4486   33.6770 N   0  0  0  0  0  0  0  0  0  0  0  0
   20.2166   10.4359   32.5197 C   0  0  3  0  0  0  0  0  0  0  0  0
   19.9034   11.8154   32.8755 C   0  0  0  0  0  0  0  0  0  0  0  0
   19.6627   12.9133   33.1535 N   0  0  0  0  0  0  0  0  0  0  0  0
   21.3886    6.6799   31.3021 N   0  0  0  0  0  0  0  0  0  0  0  0
   20.7526    5.5183   31.1147 C   0  0  0  0  0  0  0  0  0  0  0  0
   19.5388    5.3838   31.2541 O   0  0  0  0  0  0  0  0  0  0  0  0
   21.5779    4.2945   30.6927 C   0  0  0  0  0  0  0  0  0  0  0  0
   23.0905    4.5085   30.6435 C   0  0  0  0  0  0  0  0  0  0  0  0
   23.6658    5.3064   29.6460 C   0  0  0  0  0  0  0  0  0  0  0  0
   25.0464    5.5098   29.6200 C   0  0  0  0  0  0  0  0  0  0  0  0
   25.8561    4.9156   30.5871 C   0  0  0  0  0  0  0  0  0  0  0  0
   27.5599    5.1731   30.5675 Cl  0  0  0  0  0  0  0  0  0  0  0  0
   25.2884    4.1164   31.5778 C   0  0  0  0  0  0  0  0  0  0  0  0
   23.9087    3.9120   31.6076 C   0  0  0  0  0  0  0  0  0  0  0  0
   24.9393   12.0408   29.6521 H   0  0  0  0  0  0  0  0  0  0  0  0
   23.3760   12.9219   29.7310 H   0  0  0  0  0  0  0  0  0  0  0  0
   24.3464   12.6789   31.2230 H   0  0  0  0  0  0  0  0  0  0  0  0
   23.0060   10.4600   29.5707 H   0  0  0  0  0  0  0  0  0  0  0  0
   23.9764   10.2170   31.0627 H   0  0  0  0  0  0  0  0  0  0  0  0
   19.1680    7.2157   32.8275 H   0  0  0  0  0  0  0  0  0  0  0  0
   18.1032   10.4083   33.9040 H   0  0  0  0  0  0  0  0  0  0  0  0
   17.4918    9.0901   33.1590 H   0  0  0  0  0  0  0  0  0  0  0  0
   20.8149   10.3327   33.4370 H   0  0  0  0  0  0  0  0  0  0  0  0
   21.3730    3.4841   31.4078 H   0  0  0  0  0  0  0  0  0  0  0  0
   21.2454    3.9907   29.6891 H   0  0  0  0  0  0  0  0  0  0  0  0
   23.0395    5.7653   28.8953 H   0  0  0  0  0  0  0  0  0  0  0  0
   25.4872    6.1271   28.8512 H   0  0  0  0  0  0  0  0  0  0  0  0
   25.9179    3.6544   32.3239 H   0  0  0  0  0  0  0  0  0  0  0  0
   23.4720    3.2920   32.3766 H   0  0  0  0  0  0  0  0  0  0  0  0
  1  2  1  0  0  0  0
  2  3  1  0  0  0  0
  3  4  1  0  0  0  0
  4 10  1  0  0  0  0
  4  5  2  0  0  0  0
  5  6  1  0  0  0  0
  6  7  1  0  0  0  0
  6 13  2  0  0  0  0
  7  8  2  0  0  0  0
  8  9  1  0  0  0  0
  8 10  1  0  0  0  0
 10 11  1  0  0  0  0
 11 12  3  0  0  0  0
 13 14  1  0  0  0  0
 14 15  2  0  0  0  0
 14 16  1  0  0  0  0
 16 17  1  0  0  0  0
 17 23  2  0  0  0  0
 17 18  1  0  0  0  0
 18 19  2  0  0  0  0
 19 20  1  0  0  0  0
 20 21  1  0  0  0  0
 20 22  2  0  0  0  0
 22 23  1  0  0  0  0
  1 24  1  0  0  0  0
  1 25  1  0  0  0  0
  1 26  1  0  0  0  0
  2 27  1  0  0  0  0
  2 28  1  0  0  0  0
  7 29  1  0  0  0  0
  9 30  1  0  0  0  0
  9 31  1  0  0  0  0
 10 32  1  0  0  0  0
 16 33  1  0  0  0  0
 16 34  1  0  0  0  0
 18 35  1  0  0  0  0
 19 36  1  0  0  0  0
 22 37  1  0  0  0  0
 23 38  1  0  0  0  0
M  END
> <i_m_stars>
0

> <r_user_dG.exp>
-8.483096

$$$$
18627-1
  -OEChem-05192314073D
 Structure written by MMmdl.
 38 39  0     0  0  0  0  0  0999 V2000
   24.0455   12.2310   30.2644 C   0  0  0  0  0  0  0  0  0  0  0  0
   23.3145   10.9118   30.5250 C   0  0  0  0  0  0  0  0  0  0  0  0
   22.1664   11.2000   31.3187 O   0  0  0  0  0  0  0  0  0  0  0  0
   21.3513   10.1659   31.7455 C   0  0  0  0  0  0  0  0  0  0  0  0
   21.6956    8.9024   31.3722 N   0  0  0  0  0  0  0  0  0  0  0  0
   20.9003    7.8904   31.7476 C   0  0  0  0  0  0  0  0  0  0  0  0
   19.7671    8.0627   32.5273 C   0  0  0  0  0  0  0  0  0  0  0  0
   19.4228    9.3455   32.9112 C   0  0  0  0  0  0  0  0  0  0  0  0
   18.2685    9.4486   33.6770 N   0  0  0  0  0  0  0  0  0  0  0  0
   20.2166   10.4359   32.5197 C   0  0  0  0  0  0  0  0  0  0  0  0
   19.9034   11.8154   32.8755 C   0  0  0  0  0  0  0  0  0  0  0  0
   19.6627   12.9133   33.1535 N   0  0  0  0  0  0  0  0  0  0  0  0
   21.3886    6.6799   31.3021 N   0  0  0  0  0  0  0  0  0  0  0  0
   20.7526    5.5183   31.1147 C   0  0  0  0  0  0  0  0  0  0  0  0
   19.5388    5.3838   31.2541 O   0  0  0  0  0  0  0  0  0  0  0  0
   21.5779    4.2945   30.6927 C   0  0  0  0  0  0  0  0  0  0  0  0
   23.0905    4.5085   30.6435 C   0  0  0  0  0  0  0  0  0  0  0  0
   23.6658    5.3064   29.6460 C   0  0  0  0  0  0  0  0  0  0  0  0
   25.0464    5.5098   29.6200 C   0  0  0  0  0  0  0  0  0  0  0  0
   25.8561    4.9156   30.5871 C   0  0  0  0  0  0  0  0  0  0  0  0
   27.5599    5.1731   30.5675 Cl  0  0  0  0  0  0  0  0  0  0  0  0
   25.2884    4.1164   31.5778 C   0  0  0  0  0  0  0  0  0  0  0  0
   23.9087    3.9120   31.6076 C   0  0  0  0  0  0  0  0  0  0  0  0
   24.9393   12.0408   29.6521 H   0  0  0  0  0  0  0  0  0  0  0  0
   23.3760   12.9219   29.7310 H   0  0  0  0  0  0  0  0  0  0  0  0
   24.3464   12.6789   31.2230 H   0  0  0  0  0  0  0  0  0  0  0  0
   23.0060   10.4600   29.5707 H   0  0  0  0  0  0  0  0  0  0  0  0
   23.9764   10.2170   31.0627 H   0  0  0  0  0  0  0  0  0  0  0  0
   18.9174    7.6534   31.9613 H   0  0  0  0  0  0  0  0  0  0  0  0
   19.9122    7.4759   33.4464 H   0  0  0  0  0  0  0  0  0  0  0  0
   18.1032   10.4083   33.9040 H   0  0  0  0  0  0  0  0  0  0  0  0
   17.4918    9.0901   33.1590 H   0  0  0  0  0  0  0  0  0  0  0  0
   21.3730    3.4841   31.4078 H   0  0  0  0  0  0  0  0  0  0  0  0
   21.2454    3.9907   29.6891 H   0  0  0  0  0  0  0  0  0  0  0  0
   23.0395    5.7653   28.8953 H   0  0  0  0  0  0  0  0  0  0  0  0
   25.4872    6.1271   28.8512 H   0  0  0  0  0  0  0  0  0  0  0  0
   25.9179    3.6544   32.3239 H   0  0  0  0  0  0  0  0  0  0  0  0
   23.4720    3.2920   32.3766 H   0  0  0  0  0  0  0  0  0  0  0  0
  1  2  1  0  0  0  0
  2  3  1  0  0  0  0
  3  4  1  0  0  0  0
  4 10  1  0  0  0  0
  4  5  2  0  0  0  0
  5  6  1  0  0  0  0
  6  7  1  0  0  0  0
  6 13  2  0  0  0  0
  7  8  1  0  0  0  0
  8  9  1  0  0  0  0
  8 10  2  0  0  0  0
 10 11  1  0  0  0  0
 11 12  3  0  0  0  0
 13 14  1  0  0  0  0
 14 15  2  0  0  0  0
 14 16  1  0  0  0  0
 16 17  1  0  0  0  0
 17 23  2  0  0  0  0
 17 18  1  0  0  0  0
 18 19  2  0  0  0  0
 19 20  1  0  0  0  0
 20 21  1  0  0  0  0
 20 22  2  0  0  0  0
 22 23  1  0  0  0  0
  1 24  1  0  0  0  0
  1 25  1  0  0  0  0
  1 26  1  0  0  0  0
  2 27  1  0  0  0  0
  2 28  1  0  0  0  0
  7 29  1  0  0  0  0
  7 30  1  0  0  0  0
  9 31  1  0  0  0  0
  9 32  1  0  0  0  0
 16 33  1  0  0  0  0
 16 34  1  0  0  0  0
 18 35  1  0  0  0  0
 19 36  1  0  0  0  0
 22 37  1  0  0  0  0
 23 38  1  0  0  0  0
M  END
> <i_m_stars>
0

> <r_user_dG.exp>
-8.483096

$$$$
18627-1
  -OEChem-05192314073D
 Structure written by MMmdl.
 38 39  0     0  0  0  0  0  0999 V2000
   24.0455   12.2310   30.2644 C   0  0  0  0  0  0  0  0  0  0  0  0
   23.3145   10.9118   30.5250 C   0  0  0  0  0  0  0  0  0  0  0  0
   22.1664   11.2000   31.3187 O   0  0  0  0  0  0  0  0  0  0  0  0
   21.3513   10.1659   31.7455 C   0  0  0  0  0  0  0  0  0  0  0  0
   21.6956    8.9024   31.3722 N   0  0  0  0  0  0  0  0  0  0  0  0
   20.9003    7.8904   31.7476 C   0  0  0  0  0  0  0  0  0  0  0  0
   19.7671    8.0627   32.5273 C   0  0  0  0  0  0  0  0  0  0  0  0
   19.4228    9.3455   32.9112 C   0  0  0  0  0  0  0  0  0  0  0  0
   18.2685    9.4486   33.6770 N   0  0  0  0  0  0  0  0  0  0  0  0
   20.2166   10.4359   32.5197 C   0  0  0  0  0  0  0  0  0  0  0  0
   19.9034   11.8154   32.8755 C   0  0  0  0  0  0  0  0  0  0  0  0
   19.6627   12.9133   33.1535 N   0  0  0  0  0  0  0  0  0  0  0  0
   21.3886    6.6799   31.3021 N   0  0  0  0  0  0  0  0  0  0  0  0
   20.7526    5.5183   31.1147 C   0  0  0  0  0  0  0  0  0  0  0  0
   19.5388    5.3838   31.2541 O   0  0  0  0  0  0  0  0  0  0  0  0
   21.5779    4.2945   30.6927 C   0  0  0  0  0  0  0  0  0  0  0  0
   23.0905    4.5085   30.6435 C   0  0  0  0  0  0  0  0  0  0  0  0
   23.6658    5.3064   29.6460 C   0  0  0  0  0  0  0  0  0  0  0  0
   25.0464    5.5098   29.6200 C   0  0  0  0  0  0  0  0  0  0  0  0
   25.8561    4.9156   30.5871 C   0  0  0  0  0  0  0  0  0  0  0  0
   27.5599    5.1731   30.5675 Cl  0  0  0  0  0  0  0  0  0  0  0  0
   25.2884    4.1164   31.5778 C   0  0  0  0  0  0  0  0  0  0  0  0
   23.9087    3.9120   31.6076 C   0  0  0  0  0  0  0  0  0  0  0  0
   24.9393   12.0408   29.6521 H   0  0  0  0  0  0  0  0  0  0  0  0
   23.3760   12.9219   29.7310 H   0  0  0  0  0  0  0  0  0  0  0  0
   24.3464   12.6789   31.2230 H   0  0  0  0  0  0  0  0  0  0  0  0
   23.0060   10.4600   29.5707 H   0  0  0  0  0  0  0  0  0  0  0  0
   23.9764   10.2170   31.0627 H   0  0  0  0  0  0  0  0  0  0  0  0
   22.5202    8.7337   30.8321 H   0  0  0  0  0  0  0  0  0  0  0  0
   18.9174    7.6534   31.9613 H   0  0  0  0  0  0  0  0  0  0  0  0
   19.9122    7.4759   33.4464 H   0  0  0  0  0  0  0  0  0  0  0  0
   18.0641   10.3966   33.9208 H   0  0  0  0  0  0  0  0  0  0  0  0
   21.3730    3.4841   31.4078 H   0  0  0  0  0  0  0  0  0  0  0  0
   21.2454    3.9907   29.6891 H   0  0  0  0  0  0  0  0  0  0  0  0
   23.0395    5.7653   28.8953 H   0  0  0  0  0  0  0  0  0  0  0  0
   25.4872    6.1271   28.8512 H   0  0  0  0  0  0  0  0  0  0  0  0
   25.9179    3.6544   32.3239 H   0  0  0  0  0  0  0  0  0  0  0  0
   23.4720    3.2920   32.3766 H   0  0  0  0  0  0  0  0  0  0  0  0
  1  2  1  0  0  0  0
  2  3  1  0  0  0  0
  3  4  1  0  0  0  0
  4 10  2  0  0  0  0
  4  5  1  0  0  0  0
  5  6  1  0  0  0  0
  6  7  1  0  0  0  0
  6 13  2  0  0  0  0
  7  8  1  0  0  0  0
  8  9  2  0  0  0  0
  8 10  1  0  0  0  0
 10 11  1  0  0  0  0
 11 12  3  0  0  0  0
 13 14  1  0  0  0  0
 14 15  2  0  0  0  0
 14 16  1  0  0  0  0
 16 17  1  0  0  0  0
 17 23  2  0  0  0  0
 17 18  1  0  0  0  0
 18 19  2  0  0  0  0
 19 20  1  0  0  0  0
 20 21  1  0  0  0  0
 20 22  2  0  0  0  0
 22 23  1  0  0  0  0
  1 24  1  0  0  0  0
  1 25  1  0  0  0  0
  1 26  1  0  0  0  0
  2 27  1  0  0  0  0
  2 28  1  0  0  0  0
  5 29  1  0  0  0  0
  7 30  1  0  0  0  0
  7 31  1  0  0  0  0
  9 32  1  0  0  0  0
 16 33  1  0  0  0  0
 16 34  1  0  0  0  0
 18 35  1  0  0  0  0
 19 36  1  0  0  0  0
 22 37  1  0  0  0  0
 23 38  1  0  0  0  0
M  END
> <i_m_stars>
0

> <r_user_dG.exp>
-8.483096

$$$$
18627-1
  -OEChem-05192314073D
 Structure written by MMmdl.
 38 39  0     1  0  0  0  0  0999 V2000
   24.0455   12.2310   30.2644 C   0  0  0  0  0  0  0  0  0  0  0  0
   23.3145   10.9118   30.5250 C   0  0  0  0  0  0  0  0  0  0  0  0
   22.1664   11.2000   31.3187 O   0  0  0  0  0  0  0  0  0  0  0  0
   21.3513   10.1659   31.7455 C   0  0  0  0  0  0  0  0  0  0  0  0
   21.6956    8.9024   31.3722 N   0  0  0  0  0  0  0  0  0  0  0  0
   20.9003    7.8904   31.7476 C   0  0  0  0  0  0  0  0  0  0  0  0
   19.7671    8.0627   32.5273 C   0  0  0  0  0  0  0  0  0  0  0  0
   19.4228    9.3455   32.9112 C   0  0  0  0  0  0  0  0  0  0  0  0
   18.2685    9.4486   33.6770 N   0  0  0  0  0  0  0  0  0  0  0  0
   20.2166   10.4359   32.5197 C   0  0  3  0  0  0  0  0  0  0  0  0
   19.9034   11.8154   32.8755 C   0  0  0  0  0  0  0  0  0  0  0  0
   19.6627   12.9133   33.1535 N   0  0  0  0  0  0  0  0  0  0  0  0
   21.3886    6.6799   31.3021 N   0  0  0  0  0  0  0  0  0  0  0  0
   20.7526    5.5183   31.1147 C   0  0  0  0  0  0  0  0  0  0  0  0
   19.5388    5.3838   31.2541 O   0  0  0  0  0  0  0  0  0  0  0  0
   21.5779    4.2945   30.6927 C   0  0  0  0  0  0  0  0  0  0  0  0
   23.0905    4.5085   30.6435 C   0  0  0  0  0  0  0  0  0  0  0  0
   23.6658    5.3064   29.6460 C   0  0  0  0  0  0  0  0  0  0  0  0
   25.0464    5.5098   29.6200 C   0  0  0  0  0  0  0  0  0  0  0  0
   25.8561    4.9156   30.5871 C   0  0  0  0  0  0  0  0  0  0  0  0
   27.5599    5.1731   30.5675 Cl  0  0  0  0  0  0  0  0  0  0  0  0
   25.2884    4.1164   31.5778 C   0  0  0  0  0  0  0  0  0  0  0  0
   23.9087    3.9120   31.6076 C   0  0  0  0  0  0  0  0  0  0  0  0
   24.9393   12.0408   29.6521 H   0  0  0  0  0  0  0  0  0  0  0  0
   23.3760   12.9219   29.7310 H   0  0  0  0  0  0  0  0  0  0  0  0
   24.3464   12.6789   31.2230 H   0  0  0  0  0  0  0  0  0  0  0  0
   23.0060   10.4600   29.5707 H   0  0  0  0  0  0  0  0  0  0  0  0
   23.9764   10.2170   31.0627 H   0  0  0  0  0  0  0  0  0  0  0  0
   19.1680    7.2157   32.8275 H   0  0  0  0  0  0  0  0  0  0  0  0
   18.0641   10.3966   33.9208 H   0  0  0  0  0  0  0  0  0  0  0  0
   20.8149   10.3327   33.4370 H   0  0  0  0  0  0  0  0  0  0  0  0
   19.2967    4.4831   31.0733 H   0  0  0  0  0  0  0  0  0  0  0  0
   21.3730    3.4841   31.4078 H   0  0  0  0  0  0  0  0  0  0  0  0
   21.2454    3.9907   29.6891 H   0  0  0  0  0  0  0  0  0  0  0  0
   23.0395    5.7653   28.8953 H   0  0  0  0  0  0  0  0  0  0  0  0
   25.4872    6.1271   28.8512 H   0  0  0  0  0  0  0  0  0  0  0  0
   25.9179    3.6544   32.3239 H   0  0  0  0  0  0  0  0  0  0  0  0
   23.4720    3.2920   32.3766 H   0  0  0  0  0  0  0  0  0  0  0  0
  1  2  1  0  0  0  0
  2  3  1  0  0  0  0
  3  4  1  0  0  0  0
  4 10  1  0  0  0  0
  4  5  2  0  0  0  0
  5  6  1  0  0  0  0
  6  7  2  0  0  0  0
  6 13  1  0  0  0  0
  7  8  1  0  0  0  0
  8  9  2  0  0  0  0
  8 10  1  0  0  0  0
 10 11  1  0  0  0  0
 11 12  3  0  0  0  0
 13 14  2  0  0  0  0
 14 15  1  0  0  0  0
 14 16  1  0  0  0  0
 16 17  1  0  0  0  0
 17 23  2  0  0  0  0
 17 18  1  0  0  0  0
 18 19  2  0  0  0  0
 19 20  1  0  0  0  0
 20 21  1  0  0  0  0
 20 22  2  0  0  0  0
 22 23  1  0  0  0  0
  1 24  1  0  0  0  0
  1 25  1  0  0  0  0
  1 26  1  0  0  0  0
  2 27  1  0  0  0  0
  2 28  1  0  0  0  0
  7 29  1  0  0  0  0
  9 30  1  0  0  0  0
 10 31  1  0  0  0  0
 15 32  1  0  0  0  0
 16 33  1  0  0  0  0
 16 34  1  0  0  0  0
 18 35  1  0  0  0  0
 19 36  1  0  0  0  0
 22 37  1  0  0  0  0
 23 38  1  0  0  0  0
M  END
> <i_m_stars>
0

> <r_user_dG.exp>
-8.483096

$$$$
18627-1
  -OEChem-05192314073D
 Structure written by MMmdl.
 38 39  0     0  0  0  0  0  0999 V2000
   24.0455   12.2310   30.2644 C   0  0  0  0  0  0  0  0  0  0  0  0
   23.3145   10.9118   30.5250 C   0  0  0  0  0  0  0  0  0  0  0  0
   22.1664   11.2000   31.3187 O   0  0  0  0  0  0  0  0  0  0  0  0
   21.3513   10.1659   31.7455 C   0  0  0  0  0  0  0  0  0  0  0  0
   21.6956    8.9024   31.3722 N   0  0  0  0  0  0  0  0  0  0  0  0
   20.9003    7.8904   31.7476 C   0  0  0  0  0  0  0  0  0  0  0  0
   19.7671    8.0627   32.5273 C   0  0  0  0  0  0  0  0  0  0  0  0
   19.4228    9.3455   32.9112 C   0  0  0  0  0  0  0  0  0  0  0  0
   18.2685    9.4486   33.6770 N   0  0  0  0  0  0  0  0  0  0  0  0
   20.2166   10.4359   32.5197 C   0  0  0  0  0  0  0  0  0  0  0  0
   19.9034   11.8154   32.8755 C   0  0  0  0  0  0  0  0  0  0  0  0
   19.6627   12.9133   33.1535 N   0  0  0  0  0  0  0  0  0  0  0  0
   21.3886    6.6799   31.3021 N   0  0  0  0  0  0  0  0  0  0  0  0
   20.7526    5.5183   31.1147 C   0  0  0  0  0  0  0  0  0  0  0  0
   19.5388    5.3838   31.2541 O   0  0  0  0  0  0  0  0  0  0  0  0
   21.5779    4.2945   30.6927 C   0  0  0  0  0  0  0  0  0  0  0  0
   23.0905    4.5085   30.6435 C   0  0  0  0  0  0  0  0  0  0  0  0
   23.6658    5.3064   29.6460 C   0  0  0  0  0  0  0  0  0  0  0  0
   25.0464    5.5098   29.6200 C   0  0  0  0  0  0  0  0  0  0  0  0
   25.8561    4.9156   30.5871 C   0  0  0  0  0  0  0  0  0  0  0  0
   27.5599    5.1731   30.5675 Cl  0  0  0  0  0  0  0  0  0  0  0  0
   25.2884    4.1164   31.5778 C   0  0  0  0  0  0  0  0  0  0  0  0
   23.9087    3.9120   31.6076 C   0  0  0  0  0  0  0  0  0  0  0  0
   24.9393   12.0408   29.6521 H   0  0  0  0  0  0  0  0  0  0  0  0
   23.3760   12.9219   29.7310 H   0  0  0  0  0  0  0  0  0  0  0  0
   24.3464   12.6789   31.2230 H   0  0  0  0  0  0  0  0  0  0  0  0
   23.0060   10.4600   29.5707 H   0  0  0  0  0  0  0  0  0  0  0  0
   23.9764   10.2170   31.0627 H   0  0  0  0  0  0  0  0  0  0  0  0
   18.9174    7.6534   31.9613 H   0  0  0  0  0  0  0  0  0  0  0  0
   19.9122    7.4759   33.4464 H   0  0  0  0  0  0  0  0  0  0  0  0
   18.0641   10.3966   33.9208 H   0  0  0  0  0  0  0  0  0  0  0  0
   19.2967    4.4831   31.0733 H   0  0  0  0  0  0  0  0  0  0  0  0
   21.3730    3.4841   31.4078 H   0  0  0  0  0  0  0  0  0  0  0  0
   21.2454    3.9907   29.6891 H   0  0  0  0  0  0  0  0  0  0  0  0
   23.0395    5.7653   28.8953 H   0  0  0  0  0  0  0  0  0  0  0  0
   25.4872    6.1271   28.8512 H   0  0  0  0  0  0  0  0  0  0  0  0
   25.9179    3.6544   32.3239 H   0  0  0  0  0  0  0  0  0  0  0  0
   23.4720    3.2920   32.3766 H   0  0  0  0  0  0  0  0  0  0  0  0
  1  2  1  0  0  0  0
  2  3  1  0  0  0  0
  3  4  1  0  0  0  0
  4 10  2  0  0  0  0
  4  5  1  0  0  0  0
  5  6  2  0  0  0  0
  6  7  1  0  0  0  0
  6 13  1  0  0  0  0
  7  8  1  0  0  0  0
  8  9  2  0  0  0  0
  8 10  1  0  0  0  0
 10 11  1  0  0  0  0
 11 12  3  0  0  0  0
 13 14  2  0  0  0  0
 14 15  1  0  0  0  0
 14 16  1  0  0  0  0
 16 17  1  0  0  0  0
 17 23  2  0  0  0  0
 17 18  1  0  0  0  0
 18 19  2  0  0  0  0
 19 20  1  0  0  0  0
 20 21  1  0  0  0  0
 20 22  2  0  0  0  0
 22 23  1  0  0  0  0
  1 24  1  0  0  0  0
  1 25  1  0  0  0  0
  1 26  1  0  0  0  0
  2 27  1  0  0  0  0
  2 28  1  0  0  0  0
  7 29  1  0  0  0  0
  7 30  1  0  0  0  0
  9 31  1  0  0  0  0
 15 32  1  0  0  0  0
 16 33  1  0  0  0  0
 16 34  1  0  0  0  0
 18 35  1  0  0  0  0
 19 36  1  0  0  0  0
 22 37  1  0  0  0  0
 23 38  1  0  0  0  0
M  END
> <i_m_stars>
0

> <r_user_dG.exp>
-8.483096

$$$$
