18628-1
  -OEChem-05192314073D
 Structure written by MMmdl.
 41 42  0     0  0  0  0  0  0999 V2000
   23.9605   12.3163   30.2947 C   0  0  0  0  0  0  0  0  0  0  0  0
   23.2559   10.9824   30.5536 C   0  0  0  0  0  0  0  0  0  0  0  0
   22.1036   11.2446   31.3514 O   0  0  0  0  0  0  0  0  0  0  0  0
   21.3110   10.1914   31.7754 C   0  0  0  0  0  0  0  0  0  0  0  0
   21.6913    8.9382   31.4088 N   0  0  0  0  0  0  0  0  0  0  0  0
   20.9227    7.9051   31.7793 C   0  0  0  0  0  0  0  0  0  0  0  0
   19.7725    8.0448   32.5397 C   0  0  0  0  0  0  0  0  0  0  0  0
   19.3904    9.3202   32.9187 C   0  0  0  0  0  0  0  0  0  0  0  0
   18.2233    9.3985   33.6687 N   0  0  0  0  0  0  0  0  0  0  0  0
   20.1628   10.4312   32.5383 C   0  0  0  0  0  0  0  0  0  0  0  0
   19.8175   11.8036   32.8910 C   0  0  0  0  0  0  0  0  0  0  0  0
   19.5528   12.8968   33.1655 N   0  0  0  0  0  0  0  0  0  0  0  0
   21.4664    6.7163   31.3474 N   0  0  0  0  0  0  0  0  0  0  0  0
   20.9017    5.5224   31.1455 C   0  0  0  0  0  0  0  0  0  0  0  0
   19.7006    5.3105   31.3000 O   0  0  0  0  0  0  0  0  0  0  0  0
   21.8103    4.3697   30.6812 C   0  0  0  0  0  0  0  0  0  0  0  0
   23.2677    4.7656   30.3673 C   0  0  0  0  0  0  0  0  0  0  0  0
   24.3654    4.2247   31.0652 C   0  0  0  0  0  0  0  0  0  0  0  0
   24.1953    3.1869   32.1607 C   0  0  0  0  0  0  0  0  0  0  0  0
   25.6604    4.6622   30.7690 C   0  0  0  0  0  0  0  0  0  0  0  0
   25.8785    5.6251   29.7872 C   0  0  0  0  0  0  0  0  0  0  0  0
   24.8016    6.1467   29.0788 C   0  0  0  0  0  0  0  0  0  0  0  0
   23.5087    5.7102   29.3592 C   0  0  0  0  0  0  0  0  0  0  0  0
   24.8562   12.1451   29.6796 H   0  0  0  0  0  0  0  0  0  0  0  0
   23.2763   12.9955   29.7649 H   0  0  0  0  0  0  0  0  0  0  0  0
   24.2552   12.7674   31.2537 H   0  0  0  0  0  0  0  0  0  0  0  0
   22.9540   10.5274   29.5987 H   0  0  0  0  0  0  0  0  0  0  0  0
   23.9329   10.2993   31.0875 H   0  0  0  0  0  0  0  0  0  0  0  0
   19.1903    7.1823   32.8286 H   0  0  0  0  0  0  0  0  0  0  0  0
   18.0332   10.3546   33.8916 H   0  0  0  0  0  0  0  0  0  0  0  0
   17.4621    9.0217   33.1409 H   0  0  0  0  0  0  0  0  0  0  0  0
   22.4466    6.7524   31.1525 H   0  0  0  0  0  0  0  0  0  0  0  0
   21.8282    3.6096   31.4761 H   0  0  0  0  0  0  0  0  0  0  0  0
   21.3717    3.9370   29.7699 H   0  0  0  0  0  0  0  0  0  0  0  0
   24.2402    2.1792   31.7220 H   0  0  0  0  0  0  0  0  0  0  0  0
   25.0006    3.3005   32.9014 H   0  0  0  0  0  0  0  0  0  0  0  0
   23.2218    3.3294   32.6527 H   0  0  0  0  0  0  0  0  0  0  0  0
   26.5002    4.2487   31.3076 H   0  0  0  0  0  0  0  0  0  0  0  0
   26.8814    5.9660   29.5764 H   0  0  0  0  0  0  0  0  0  0  0  0
   24.9673    6.8892   28.3122 H   0  0  0  0  0  0  0  0  0  0  0  0
   22.6793    6.1053   28.7915 H   0  0  0  0  0  0  0  0  0  0  0  0
  1  2  1  0  0  0  0
  2  3  1  0  0  0  0
  3  4  1  0  0  0  0
  4 10  2  0  0  0  0
  4  5  1  0  0  0  0
  5  6  2  0  0  0  0
  6  7  1  0  0  0  0
  6 13  1  0  0  0  0
  7  8  2  0  0  0  0
  8  9  1  0  0  0  0
  8 10  1  0  0  0  0
 10 11  1  0  0  0  0
 11 12  3  0  0  0  0
 13 14  1  0  0  0  0
 14 15  2  0  0  0  0
 14 16  1  0  0  0  0
 16 17  1  0  0  0  0
 17 23  2  0  0  0  0
 17 18  1  0  0  0  0
 18 19  1  0  0  0  0
 18 20  2  0  0  0  0
 20 21  1  0  0  0  0
 21 22  2  0  0  0  0
 22 23  1  0  0  0  0
  1 24  1  0  0  0  0
  1 25  1  0  0  0  0
  1 26  1  0  0  0  0
  2 27  1  0  0  0  0
  2 28  1  0  0  0  0
  7 29  1  0  0  0  0
  9 30  1  0  0  0  0
  9 31  1  0  0  0  0
 13 32  1  0  0  0  0
 16 33  1  0  0  0  0
 16 34  1  0  0  0  0
 19 35  1  0  0  0  0
 19 36  1  0  0  0  0
 19 37  1  0  0  0  0
 20 38  1  0  0  0  0
 21 39  1  0  0  0  0
 22 40  1  0  0  0  0
 23 41  1  0  0  0  0
M  END
> <i_m_stars>
0

> <r_user_dG.exp>
-8.702592

$$$$
18628-1
  -OEChem-05192314073D
 Structure written by MMmdl.
 41 42  0     0  0  0  0  0  0999 V2000
   23.9605   12.3163   30.2947 C   0  0  0  0  0  0  0  0  0  0  0  0
   23.2559   10.9824   30.5536 C   0  0  0  0  0  0  0  0  0  0  0  0
   22.1036   11.2446   31.3514 O   0  0  0  0  0  0  0  0  0  0  0  0
   21.3110   10.1914   31.7754 C   0  0  0  0  0  0  0  0  0  0  0  0
   21.6913    8.9382   31.4088 N   0  0  0  0  0  0  0  0  0  0  0  0
   20.9227    7.9051   31.7793 C   0  0  0  0  0  0  0  0  0  0  0  0
   19.7725    8.0448   32.5397 C   0  0  0  0  0  0  0  0  0  0  0  0
   19.3904    9.3202   32.9187 C   0  0  0  0  0  0  0  0  0  0  0  0
   18.2233    9.3985   33.6687 N   0  0  0  0  0  0  0  0  0  0  0  0
   20.1628   10.4312   32.5383 C   0  0  0  0  0  0  0  0  0  0  0  0
   19.8175   11.8036   32.8910 C   0  0  0  0  0  0  0  0  0  0  0  0
   19.5528   12.8968   33.1655 N   0  0  0  0  0  0  0  0  0  0  0  0
   21.4664    6.7163   31.3474 N   0  0  0  0  0  0  0  0  0  0  0  0
   20.9017    5.5224   31.1455 C   0  0  0  0  0  0  0  0  0  0  0  0
   19.7006    5.3105   31.3000 O   0  0  0  0  0  0  0  0  0  0  0  0
   21.8103    4.3697   30.6812 C   0  0  0  0  0  0  0  0  0  0  0  0
   23.2677    4.7656   30.3673 C   0  0  0  0  0  0  0  0  0  0  0  0
   24.3654    4.2247   31.0652 C   0  0  0  0  0  0  0  0  0  0  0  0
   24.1953    3.1869   32.1607 C   0  0  0  0  0  0  0  0  0  0  0  0
   25.6604    4.6622   30.7690 C   0  0  0  0  0  0  0  0  0  0  0  0
   25.8785    5.6251   29.7872 C   0  0  0  0  0  0  0  0  0  0  0  0
   24.8016    6.1467   29.0788 C   0  0  0  0  0  0  0  0  0  0  0  0
   23.5087    5.7102   29.3592 C   0  0  0  0  0  0  0  0  0  0  0  0
   24.8562   12.1451   29.6796 H   0  0  0  0  0  0  0  0  0  0  0  0
   23.2763   12.9955   29.7649 H   0  0  0  0  0  0  0  0  0  0  0  0
   24.2552   12.7674   31.2537 H   0  0  0  0  0  0  0  0  0  0  0  0
   22.9540   10.5274   29.5987 H   0  0  0  0  0  0  0  0  0  0  0  0
   23.9329   10.2993   31.0875 H   0  0  0  0  0  0  0  0  0  0  0  0
   19.1903    7.1823   32.8286 H   0  0  0  0  0  0  0  0  0  0  0  0
   18.0332   10.3546   33.8916 H   0  0  0  0  0  0  0  0  0  0  0  0
   17.4621    9.0217   33.1409 H   0  0  0  0  0  0  0  0  0  0  0  0
   19.5114    4.4003   31.1044 H   0  0  0  0  0  0  0  0  0  0  0  0
   21.8282    3.6096   31.4761 H   0  0  0  0  0  0  0  0  0  0  0  0
   21.3717    3.9370   29.7699 H   0  0  0  0  0  0  0  0  0  0  0  0
   24.2402    2.1792   31.7220 H   0  0  0  0  0  0  0  0  0  0  0  0
   25.0006    3.3005   32.9014 H   0  0  0  0  0  0  0  0  0  0  0  0
   23.2218    3.3294   32.6527 H   0  0  0  0  0  0  0  0  0  0  0  0
   26.5002    4.2487   31.3076 H   0  0  0  0  0  0  0  0  0  0  0  0
   26.8814    5.9660   29.5764 H   0  0  0  0  0  0  0  0  0  0  0  0
   24.9673    6.8892   28.3122 H   0  0  0  0  0  0  0  0  0  0  0  0
   22.6793    6.1053   28.7915 H   0  0  0  0  0  0  0  0  0  0  0  0
  1  2  1  0  0  0  0
  2  3  1  0  0  0  0
  3  4  1  0  0  0  0
  4 10  2  0  0  0  0
  4  5  1  0  0  0  0
  5  6  2  0  0  0  0
  6  7  1  0  0  0  0
  6 13  1  0  0  0  0
  7  8  2  0  0  0  0
  8  9  1  0  0  0  0
  8 10  1  0  0  0  0
 10 11  1  0  0  0  0
 11 12  3  0  0  0  0
 13 14  2  0  0  0  0
 14 15  1  0  0  0  0
 14 16  1  0  0  0  0
 16 17  1  0  0  0  0
 17 23  2  0  0  0  0
 17 18  1  0  0  0  0
 18 19  1  0  0  0  0
 18 20  2  0  0  0  0
 20 21  1  0  0  0  0
 21 22  2  0  0  0  0
 22 23  1  0  0  0  0
  1 24  1  0  0  0  0
  1 25  1  0  0  0  0
  1 26  1  0  0  0  0
  2 27  1  0  0  0  0
  2 28  1  0  0  0  0
  7 29  1  0  0  0  0
  9 30  1  0  0  0  0
  9 31  1  0  0  0  0
 15 32  1  0  0  0  0
 16 33  1  0  0  0  0
 16 34  1  0  0  0  0
 19 35  1  0  0  0  0
 19 36  1  0  0  0  0
 19 37  1  0  0  0  0
 20 38  1  0  0  0  0
 21 39  1  0  0  0  0
 22 40  1  0  0  0  0
 23 41  1  0  0  0  0
M  END
> <i_m_stars>
0

> <r_user_dG.exp>
-8.702592

$$$$
18628-1
  -OEChem-05192314073D
 Structure written by MMmdl.
 41 42  0     0  0  0  0  0  0999 V2000
   23.9605   12.3163   30.2947 C   0  0  0  0  0  0  0  0  0  0  0  0
   23.2559   10.9824   30.5536 C   0  0  0  0  0  0  0  0  0  0  0  0
   22.1036   11.2446   31.3514 O   0  0  0  0  0  0  0  0  0  0  0  0
   21.3110   10.1914   31.7754 C   0  0  0  0  0  0  0  0  0  0  0  0
   21.6913    8.9382   31.4088 N   0  0  0  0  0  0  0  0  0  0  0  0
   20.9227    7.9051   31.7793 C   0  0  0  0  0  0  0  0  0  0  0  0
   19.7725    8.0448   32.5397 C   0  0  0  0  0  0  0  0  0  0  0  0
   19.3904    9.3202   32.9187 C   0  0  0  0  0  0  0  0  0  0  0  0
   18.2233    9.3985   33.6687 N   0  0  0  0  0  0  0  0  0  0  0  0
   20.1628   10.4312   32.5383 C   0  0  0  0  0  0  0  0  0  0  0  0
   19.8175   11.8036   32.8910 C   0  0  0  0  0  0  0  0  0  0  0  0
   19.5528   12.8968   33.1655 N   0  0  0  0  0  0  0  0  0  0  0  0
   21.4664    6.7163   31.3474 N   0  0  0  0  0  0  0  0  0  0  0  0
   20.9017    5.5224   31.1455 C   0  0  0  0  0  0  0  0  0  0  0  0
   19.7006    5.3105   31.3000 O   0  0  0  0  0  0  0  0  0  0  0  0
   21.8103    4.3697   30.6812 C   0  0  0  0  0  0  0  0  0  0  0  0
   23.2677    4.7656   30.3673 C   0  0  0  0  0  0  0  0  0  0  0  0
   24.3654    4.2247   31.0652 C   0  0  0  0  0  0  0  0  0  0  0  0
   24.1953    3.1869   32.1607 C   0  0  0  0  0  0  0  0  0  0  0  0
   25.6604    4.6622   30.7690 C   0  0  0  0  0  0  0  0  0  0  0  0
   25.8785    5.6251   29.7872 C   0  0  0  0  0  0  0  0  0  0  0  0
   24.8016    6.1467   29.0788 C   0  0  0  0  0  0  0  0  0  0  0  0
   23.5087    5.7102   29.3592 C   0  0  0  0  0  0  0  0  0  0  0  0
   24.8562   12.1451   29.6796 H   0  0  0  0  0  0  0  0  0  0  0  0
   23.2763   12.9955   29.7649 H   0  0  0  0  0  0  0  0  0  0  0  0
   24.2552   12.7674   31.2537 H   0  0  0  0  0  0  0  0  0  0  0  0
   22.9540   10.5274   29.5987 H   0  0  0  0  0  0  0  0  0  0  0  0
   23.9329   10.2993   31.0875 H   0  0  0  0  0  0  0  0  0  0  0  0
   22.5244    8.7913   30.8756 H   0  0  0  0  0  0  0  0  0  0  0  0
   19.1903    7.1823   32.8286 H   0  0  0  0  0  0  0  0  0  0  0  0
   17.9946   10.3420   33.9083 H   0  0  0  0  0  0  0  0  0  0  0  0
   22.4466    6.7524   31.1525 H   0  0  0  0  0  0  0  0  0  0  0  0
   21.8282    3.6096   31.4761 H   0  0  0  0  0  0  0  0  0  0  0  0
   21.3717    3.9370   29.7699 H   0  0  0  0  0  0  0  0  0  0  0  0
   24.2402    2.1792   31.7220 H   0  0  0  0  0  0  0  0  0  0  0  0
   25.0006    3.3005   32.9014 H   0  0  0  0  0  0  0  0  0  0  0  0
   23.2218    3.3294   32.6527 H   0  0  0  0  0  0  0  0  0  0  0  0
   26.5002    4.2487   31.3076 H   0  0  0  0  0  0  0  0  0  0  0  0
   26.8814    5.9660   29.5764 H   0  0  0  0  0  0  0  0  0  0  0  0
   24.9673    6.8892   28.3122 H   0  0  0  0  0  0  0  0  0  0  0  0
   22.6793    6.1053   28.7915 H   0  0  0  0  0  0  0  0  0  0  0  0
  1  2  1  0  0  0  0
  2  3  1  0  0  0  0
  3  4  1  0  0  0  0
  4 10  2  0  0  0  0
  4  5  1  0  0  0  0
  5  6  1  0  0  0  0
  6  7  2  0  0  0  0
  6 13  1  0  0  0  0
  7  8  1  0  0  0  0
  8  9  2  0  0  0  0
  8 10  1  0  0  0  0
 10 11  1  0  0  0  0
 11 12  3  0  0  0  0
 13 14  1  0  0  0  0
 14 15  2  0  0  0  0
 14 16  1  0  0  0  0
 16 17  1  0  0  0  0
 17 23  2  0  0  0  0
 17 18  1  0  0  0  0
 18 19  1  0  0  0  0
 18 20  2  0  0  0  0
 20 21  1  0  0  0  0
 21 22  2  0  0  0  0
 22 23  1  0  0  0  0
  1 24  1  0  0  0  0
  1 25  1  0  0  0  0
  1 26  1  0  0  0  0
  2 27  1  0  0  0  0
  2 28  1  0  0  0  0
  5 29  1  0  0  0  0
  7 30  1  0  0  0  0
  9 31  1  0  0  0  0
 13 32  1  0  0  0  0
 16 33  1  0  0  0  0
 16 34  1  0  0  0  0
 19 35  1  0  0  0  0
 19 36  1  0  0  0  0
 19 37  1  0  0  0  0
 20 38  1  0  0  0  0
 21 39  1  0  0  0  0
 22 40  1  0  0  0  0
 23 41  1  0  0  0  0
M  END
> <i_m_stars>
0

> <r_user_dG.exp>
-8.702592

$$$$
18628-1
  -OEChem-05192314073D
 Structure written by MMmdl.
 41 42  0     0  0  0  0  0  0999 V2000
   23.9605   12.3163   30.2947 C   0  0  0  0  0  0  0  0  0  0  0  0
   23.2559   10.9824   30.5536 C   0  0  0  0  0  0  0  0  0  0  0  0
   22.1036   11.2446   31.3514 O   0  0  0  0  0  0  0  0  0  0  0  0
   21.3110   10.1914   31.7754 C   0  0  0  0  0  0  0  0  0  0  0  0
   21.6913    8.9382   31.4088 N   0  0  0  0  0  0  0  0  0  0  0  0
   20.9227    7.9051   31.7793 C   0  0  0  0  0  0  0  0  0  0  0  0
   19.7725    8.0448   32.5397 C   0  0  0  0  0  0  0  0  0  0  0  0
   19.3904    9.3202   32.9187 C   0  0  0  0  0  0  0  0  0  0  0  0
   18.2233    9.3985   33.6687 N   0  0  0  0  0  0  0  0  0  0  0  0
   20.1628   10.4312   32.5383 C   0  0  0  0  0  0  0  0  0  0  0  0
   19.8175   11.8036   32.8910 C   0  0  0  0  0  0  0  0  0  0  0  0
   19.5528   12.8968   33.1655 N   0  0  0  0  0  0  0  0  0  0  0  0
   21.4664    6.7163   31.3474 N   0  0  0  0  0  0  0  0  0  0  0  0
   20.9017    5.5224   31.1455 C   0  0  0  0  0  0  0  0  0  0  0  0
   19.7006    5.3105   31.3000 O   0  0  0  0  0  0  0  0  0  0  0  0
   21.8103    4.3697   30.6812 C   0  0  0  0  0  0  0  0  0  0  0  0
   23.2677    4.7656   30.3673 C   0  0  0  0  0  0  0  0  0  0  0  0
   24.3654    4.2247   31.0652 C   0  0  0  0  0  0  0  0  0  0  0  0
   24.1953    3.1869   32.1607 C   0  0  0  0  0  0  0  0  0  0  0  0
   25.6604    4.6622   30.7690 C   0  0  0  0  0  0  0  0  0  0  0  0
   25.8785    5.6251   29.7872 C   0  0  0  0  0  0  0  0  0  0  0  0
   24.8016    6.1467   29.0788 C   0  0  0  0  0  0  0  0  0  0  0  0
   23.5087    5.7102   29.3592 C   0  0  0  0  0  0  0  0  0  0  0  0
   24.8562   12.1451   29.6796 H   0  0  0  0  0  0  0  0  0  0  0  0
   23.2763   12.9955   29.7649 H   0  0  0  0  0  0  0  0  0  0  0  0
   24.2552   12.7674   31.2537 H   0  0  0  0  0  0  0  0  0  0  0  0
   22.9540   10.5274   29.5987 H   0  0  0  0  0  0  0  0  0  0  0  0
   23.9329   10.2993   31.0875 H   0  0  0  0  0  0  0  0  0  0  0  0
   22.5244    8.7913   30.8756 H   0  0  0  0  0  0  0  0  0  0  0  0
   19.1903    7.1823   32.8286 H   0  0  0  0  0  0  0  0  0  0  0  0
   18.0332   10.3546   33.8916 H   0  0  0  0  0  0  0  0  0  0  0  0
   17.4621    9.0217   33.1409 H   0  0  0  0  0  0  0  0  0  0  0  0
   21.8282    3.6096   31.4761 H   0  0  0  0  0  0  0  0  0  0  0  0
   21.3717    3.9370   29.7699 H   0  0  0  0  0  0  0  0  0  0  0  0
   24.2402    2.1792   31.7220 H   0  0  0  0  0  0  0  0  0  0  0  0
   25.0006    3.3005   32.9014 H   0  0  0  0  0  0  0  0  0  0  0  0
   23.2218    3.3294   32.6527 H   0  0  0  0  0  0  0  0  0  0  0  0
   26.5002    4.2487   31.3076 H   0  0  0  0  0  0  0  0  0  0  0  0
   26.8814    5.9660   29.5764 H   0  0  0  0  0  0  0  0  0  0  0  0
   24.9673    6.8892   28.3122 H   0  0  0  0  0  0  0  0  0  0  0  0
   22.6793    6.1053   28.7915 H   0  0  0  0  0  0  0  0  0  0  0  0
  1  2  1  0  0  0  0
  2  3  1  0  0  0  0
  3  4  1  0  0  0  0
  4 10  2  0  0  0  0
  4  5  1  0  0  0  0
  5  6  1  0  0  0  0
  6  7  1  0  0  0  0
  6 13  2  0  0  0  0
  7  8  2  0  0  0  0
  8  9  1  0  0  0  0
  8 10  1  0  0  0  0
 10 11  1  0  0  0  0
 11 12  3  0  0  0  0
 13 14  1  0  0  0  0
 14 15  2  0  0  0  0
 14 16  1  0  0  0  0
 16 17  1  0  0  0  0
 17 23  2  0  0  0  0
 17 18  1  0  0  0  0
 18 19  1  0  0  0  0
 18 20  2  0  0  0  0
 20 21  1  0  0  0  0
 21 22  2  0  0  0  0
 22 23  1  0  0  0  0
  1 24  1  0  0  0  0
  1 25  1  0  0  0  0
  1 26  1  0  0  0  0
  2 27  1  0  0  0  0
  2 28  1  0  0  0  0
  5 29  1  0  0  0  0
  7 30  1  0  0  0  0
  9 31  1  0  0  0  0
  9 32  1  0  0  0  0
 16 33  1  0  0  0  0
 16 34  1  0  0  0  0
 19 35  1  0  0  0  0
 19 36  1  0  0  0  0
 19 37  1  0  0  0  0
 20 38  1  0  0  0  0
 21 39  1  0  0  0  0
 22 40  1  0  0  0  0
 23 41  1  0  0  0  0
M  END
> <i_m_stars>
0

> <r_user_dG.exp>
-8.702592

$$$$
18628-1
  -OEChem-05192314073D
 Structure written by MMmdl.
 41 42  0     0  0  0  0  0  0999 V2000
   23.9605   12.3163   30.2947 C   0  0  0  0  0  0  0  0  0  0  0  0
   23.2559   10.9824   30.5536 C   0  0  0  0  0  0  0  0  0  0  0  0
   22.1036   11.2446   31.3514 O   0  0  0  0  0  0  0  0  0  0  0  0
   21.3110   10.1914   31.7754 C   0  0  0  0  0  0  0  0  0  0  0  0
   21.6913    8.9382   31.4088 N   0  0  0  0  0  0  0  0  0  0  0  0
   20.9227    7.9051   31.7793 C   0  0  0  0  0  0  0  0  0  0  0  0
   19.7725    8.0448   32.5397 C   0  0  0  0  0  0  0  0  0  0  0  0
   19.3904    9.3202   32.9187 C   0  0  0  0  0  0  0  0  0  0  0  0
   18.2233    9.3985   33.6687 N   0  0  0  0  0  0  0  0  0  0  0  0
   20.1628   10.4312   32.5383 C   0  0  0  0  0  0  0  0  0  0  0  0
   19.8175   11.8036   32.8910 C   0  0  0  0  0  0  0  0  0  0  0  0
   19.5528   12.8968   33.1655 N   0  0  0  0  0  0  0  0  0  0  0  0
   21.4664    6.7163   31.3474 N   0  0  0  0  0  0  0  0  0  0  0  0
   20.9017    5.5224   31.1455 C   0  0  0  0  0  0  0  0  0  0  0  0
   19.7006    5.3105   31.3000 O   0  0  0  0  0  0  0  0  0  0  0  0
   21.8103    4.3697   30.6812 C   0  0  0  0  0  0  0  0  0  0  0  0
   23.2677    4.7656   30.3673 C   0  0  0  0  0  0  0  0  0  0  0  0
   24.3654    4.2247   31.0652 C   0  0  0  0  0  0  0  0  0  0  0  0
   24.1953    3.1869   32.1607 C   0  0  0  0  0  0  0  0  0  0  0  0
   25.6604    4.6622   30.7690 C   0  0  0  0  0  0  0  0  0  0  0  0
   25.8785    5.6251   29.7872 C   0  0  0  0  0  0  0  0  0  0  0  0
   24.8016    6.1467   29.0788 C   0  0  0  0  0  0  0  0  0  0  0  0
   23.5087    5.7102   29.3592 C   0  0  0  0  0  0  0  0  0  0  0  0
   24.8562   12.1451   29.6796 H   0  0  0  0  0  0  0  0  0  0  0  0
   23.2763   12.9955   29.7649 H   0  0  0  0  0  0  0  0  0  0  0  0
   24.2552   12.7674   31.2537 H   0  0  0  0  0  0  0  0  0  0  0  0
   22.9540   10.5274   29.5987 H   0  0  0  0  0  0  0  0  0  0  0  0
   23.9329   10.2993   31.0875 H   0  0  0  0  0  0  0  0  0  0  0  0
   22.5244    8.7913   30.8756 H   0  0  0  0  0  0  0  0  0  0  0  0
   19.1903    7.1823   32.8286 H   0  0  0  0  0  0  0  0  0  0  0  0
   17.9946   10.3420   33.9083 H   0  0  0  0  0  0  0  0  0  0  0  0
   19.5114    4.4003   31.1044 H   0  0  0  0  0  0  0  0  0  0  0  0
   21.8282    3.6096   31.4761 H   0  0  0  0  0  0  0  0  0  0  0  0
   21.3717    3.9370   29.7699 H   0  0  0  0  0  0  0  0  0  0  0  0
   24.2402    2.1792   31.7220 H   0  0  0  0  0  0  0  0  0  0  0  0
   25.0006    3.3005   32.9014 H   0  0  0  0  0  0  0  0  0  0  0  0
   23.2218    3.3294   32.6527 H   0  0  0  0  0  0  0  0  0  0  0  0
   26.5002    4.2487   31.3076 H   0  0  0  0  0  0  0  0  0  0  0  0
   26.8814    5.9660   29.5764 H   0  0  0  0  0  0  0  0  0  0  0  0
   24.9673    6.8892   28.3122 H   0  0  0  0  0  0  0  0  0  0  0  0
   22.6793    6.1053   28.7915 H   0  0  0  0  0  0  0  0  0  0  0  0
  1  2  1  0  0  0  0
  2  3  1  0  0  0  0
  3  4  1  0  0  0  0
  4 10  2  0  0  0  0
  4  5  1  0  0  0  0
  5  6  1  0  0  0  0
  6  7  2  0  0  0  0
  6 13  1  0  0  0  0
  7  8  1  0  0  0  0
  8  9  2  0  0  0  0
  8 10  1  0  0  0  0
 10 11  1  0  0  0  0
 11 12  3  0  0  0  0
 13 14  2  0  0  0  0
 14 15  1  0  0  0  0
 14 16  1  0  0  0  0
 16 17  1  0  0  0  0
 17 23  2  0  0  0  0
 17 18  1  0  0  0  0
 18 19  1  0  0  0  0
 18 20  2  0  0  0  0
 20 21  1  0  0  0  0
 21 22  2  0  0  0  0
 22 23  1  0  0  0  0
  1 24  1  0  0  0  0
  1 25  1  0  0  0  0
  1 26  1  0  0  0  0
  2 27  1  0  0  0  0
  2 28  1  0  0  0  0
  5 29  1  0  0  0  0
  7 30  1  0  0  0  0
  9 31  1  0  0  0  0
 15 32  1  0  0  0  0
 16 33  1  0  0  0  0
 16 34  1  0  0  0  0
 19 35  1  0  0  0  0
 19 36  1  0  0  0  0
 19 37  1  0  0  0  0
 20 38  1  0  0  0  0
 21 39  1  0  0  0  0
 22 40  1  0  0  0  0
 23 41  1  0  0  0  0
M  END
> <i_m_stars>
0

> <r_user_dG.exp>
-8.702592

$$$$
18628-1
  -OEChem-05192314073D
 Structure written by MMmdl.
 41 42  0     1  0  0  0  0  0999 V2000
   23.9605   12.3163   30.2947 C   0  0  0  0  0  0  0  0  0  0  0  0
   23.2559   10.9824   30.5536 C   0  0  0  0  0  0  0  0  0  0  0  0
   22.1036   11.2446   31.3514 O   0  0  0  0  0  0  0  0  0  0  0  0
   21.3110   10.1914   31.7754 C   0  0  0  0  0  0  0  0  0  0  0  0
   21.6913    8.9382   31.4088 N   0  0  0  0  0  0  0  0  0  0  0  0
   20.9227    7.9051   31.7793 C   0  0  0  0  0  0  0  0  0  0  0  0
   19.7725    8.0448   32.5397 C   0  0  0  0  0  0  0  0  0  0  0  0
   19.3904    9.3202   32.9187 C   0  0  0  0  0  0  0  0  0  0  0  0
   18.2233    9.3985   33.6687 N   0  0  0  0  0  0  0  0  0  0  0  0
   20.1628   10.4312   32.5383 C   0  0  3  0  0  0  0  0  0  0  0  0
   19.8175   11.8036   32.8910 C   0  0  0  0  0  0  0  0  0  0  0  0
   19.5528   12.8968   33.1655 N   0  0  0  0  0  0  0  0  0  0  0  0
   21.4664    6.7163   31.3474 N   0  0  0  0  0  0  0  0  0  0  0  0
   20.9017    5.5224   31.1455 C   0  0  0  0  0  0  0  0  0  0  0  0
   19.7006    5.3105   31.3000 O   0  0  0  0  0  0  0  0  0  0  0  0
   21.8103    4.3697   30.6812 C   0  0  0  0  0  0  0  0  0  0  0  0
   23.2677    4.7656   30.3673 C   0  0  0  0  0  0  0  0  0  0  0  0
   24.3654    4.2247   31.0652 C   0  0  0  0  0  0  0  0  0  0  0  0
   24.1953    3.1869   32.1607 C   0  0  0  0  0  0  0  0  0  0  0  0
   25.6604    4.6622   30.7690 C   0  0  0  0  0  0  0  0  0  0  0  0
   25.8785    5.6251   29.7872 C   0  0  0  0  0  0  0  0  0  0  0  0
   24.8016    6.1467   29.0788 C   0  0  0  0  0  0  0  0  0  0  0  0
   23.5087    5.7102   29.3592 C   0  0  0  0  0  0  0  0  0  0  0  0
   24.8562   12.1451   29.6796 H   0  0  0  0  0  0  0  0  0  0  0  0
   23.2763   12.9955   29.7649 H   0  0  0  0  0  0  0  0  0  0  0  0
   24.2552   12.7674   31.2537 H   0  0  0  0  0  0  0  0  0  0  0  0
   22.9540   10.5274   29.5987 H   0  0  0  0  0  0  0  0  0  0  0  0
   23.9329   10.2993   31.0875 H   0  0  0  0  0  0  0  0  0  0  0  0
   18.9432    7.6148   31.9589 H   0  0  0  0  0  0  0  0  0  0  0  0
   19.9170    7.4604   33.4603 H   0  0  0  0  0  0  0  0  0  0  0  0
   17.9946   10.3420   33.9083 H   0  0  0  0  0  0  0  0  0  0  0  0
   20.7538   10.3399   33.4615 H   0  0  0  0  0  0  0  0  0  0  0  0
   21.8282    3.6096   31.4761 H   0  0  0  0  0  0  0  0  0  0  0  0
   21.3717    3.9370   29.7699 H   0  0  0  0  0  0  0  0  0  0  0  0
   24.2402    2.1792   31.7220 H   0  0  0  0  0  0  0  0  0  0  0  0
   25.0006    3.3005   32.9014 H   0  0  0  0  0  0  0  0  0  0  0  0
   23.2218    3.3294   32.6527 H   0  0  0  0  0  0  0  0  0  0  0  0
   26.5002    4.2487   31.3076 H   0  0  0  0  0  0  0  0  0  0  0  0
   26.8814    5.9660   29.5764 H   0  0  0  0  0  0  0  0  0  0  0  0
   24.9673    6.8892   28.3122 H   0  0  0  0  0  0  0  0  0  0  0  0
   22.6793    6.1053   28.7915 H   0  0  0  0  0  0  0  0  0  0  0  0
  1  2  1  0  0  0  0
  2  3  1  0  0  0  0
  3  4  1  0  0  0  0
  4 10  1  0  0  0  0
  4  5  2  0  0  0  0
  5  6  1  0  0  0  0
  6  7  1  0  0  0  0
  6 13  2  0  0  0  0
  7  8  1  0  0  0  0
  8  9  2  0  0  0  0
  8 10  1  0  0  0  0
 10 11  1  0  0  0  0
 11 12  3  0  0  0  0
 13 14  1  0  0  0  0
 14 15  2  0  0  0  0
 14 16  1  0  0  0  0
 16 17  1  0  0  0  0
 17 23  2  0  0  0  0
 17 18  1  0  0  0  0
 18 19  1  0  0  0  0
 18 20  2  0  0  0  0
 20 21  1  0  0  0  0
 21 22  2  0  0  0  0
 22 23  1  0  0  0  0
  1 24  1  0  0  0  0
  1 25  1  0  0  0  0
  1 26  1  0  0  0  0
  2 27  1  0  0  0  0
  2 28  1  0  0  0  0
  7 29  1  0  0  0  0
  7 30  1  0  0  0  0
  9 31  1  0  0  0  0
 10 32  1  0  0  0  0
 16 33  1  0  0  0  0
 16 34  1  0  0  0  0
 19 35  1  0  0  0  0
 19 36  1  0  0  0  0
 19 37  1  0  0  0  0
 20 38  1  0  0  0  0
 21 39  1  0  0  0  0
 22 40  1  0  0  0  0
 23 41  1  0  0  0  0
M  END
> <i_m_stars>
0

> <r_user_dG.exp>
-8.702592

$$$$
18628-1
  -OEChem-05192314073D
 Structure written by MMmdl.
 41 42  0     1  0  0  0  0  0999 V2000
   23.9605   12.3163   30.2947 C   0  0  0  0  0  0  0  0  0  0  0  0
   23.2559   10.9824   30.5536 C   0  0  0  0  0  0  0  0  0  0  0  0
   22.1036   11.2446   31.3514 O   0  0  0  0  0  0  0  0  0  0  0  0
   21.3110   10.1914   31.7754 C   0  0  0  0  0  0  0  0  0  0  0  0
   21.6913    8.9382   31.4088 N   0  0  0  0  0  0  0  0  0  0  0  0
   20.9227    7.9051   31.7793 C   0  0  0  0  0  0  0  0  0  0  0  0
   19.7725    8.0448   32.5397 C   0  0  0  0  0  0  0  0  0  0  0  0
   19.3904    9.3202   32.9187 C   0  0  0  0  0  0  0  0  0  0  0  0
   18.2233    9.3985   33.6687 N   0  0  0  0  0  0  0  0  0  0  0  0
   20.1628   10.4312   32.5383 C   0  0  3  0  0  0  0  0  0  0  0  0
   19.8175   11.8036   32.8910 C   0  0  0  0  0  0  0  0  0  0  0  0
   19.5528   12.8968   33.1655 N   0  0  0  0  0  0  0  0  0  0  0  0
   21.4664    6.7163   31.3474 N   0  0  0  0  0  0  0  0  0  0  0  0
   20.9017    5.5224   31.1455 C   0  0  0  0  0  0  0  0  0  0  0  0
   19.7006    5.3105   31.3000 O   0  0  0  0  0  0  0  0  0  0  0  0
   21.8103    4.3697   30.6812 C   0  0  0  0  0  0  0  0  0  0  0  0
   23.2677    4.7656   30.3673 C   0  0  0  0  0  0  0  0  0  0  0  0
   24.3654    4.2247   31.0652 C   0  0  0  0  0  0  0  0  0  0  0  0
   24.1953    3.1869   32.1607 C   0  0  0  0  0  0  0  0  0  0  0  0
   25.6604    4.6622   30.7690 C   0  0  0  0  0  0  0  0  0  0  0  0
   25.8785    5.6251   29.7872 C   0  0  0  0  0  0  0  0  0  0  0  0
   24.8016    6.1467   29.0788 C   0  0  0  0  0  0  0  0  0  0  0  0
   23.5087    5.7102   29.3592 C   0  0  0  0  0  0  0  0  0  0  0  0
   24.8562   12.1451   29.6796 H   0  0  0  0  0  0  0  0  0  0  0  0
   23.2763   12.9955   29.7649 H   0  0  0  0  0  0  0  0  0  0  0  0
   24.2552   12.7674   31.2537 H   0  0  0  0  0  0  0  0  0  0  0  0
   22.9540   10.5274   29.5987 H   0  0  0  0  0  0  0  0  0  0  0  0
   23.9329   10.2993   31.0875 H   0  0  0  0  0  0  0  0  0  0  0  0
   19.1903    7.1823   32.8286 H   0  0  0  0  0  0  0  0  0  0  0  0
   17.9946   10.3420   33.9083 H   0  0  0  0  0  0  0  0  0  0  0  0
   20.7538   10.3399   33.4615 H   0  0  0  0  0  0  0  0  0  0  0  0
   22.4466    6.7524   31.1525 H   0  0  0  0  0  0  0  0  0  0  0  0
   21.8282    3.6096   31.4761 H   0  0  0  0  0  0  0  0  0  0  0  0
   21.3717    3.9370   29.7699 H   0  0  0  0  0  0  0  0  0  0  0  0
   24.2402    2.1792   31.7220 H   0  0  0  0  0  0  0  0  0  0  0  0
   25.0006    3.3005   32.9014 H   0  0  0  0  0  0  0  0  0  0  0  0
   23.2218    3.3294   32.6527 H   0  0  0  0  0  0  0  0  0  0  0  0
   26.5002    4.2487   31.3076 H   0  0  0  0  0  0  0  0  0  0  0  0
   26.8814    5.9660   29.5764 H   0  0  0  0  0  0  0  0  0  0  0  0
   24.9673    6.8892   28.3122 H   0  0  0  0  0  0  0  0  0  0  0  0
   22.6793    6.1053   28.7915 H   0  0  0  0  0  0  0  0  0  0  0  0
  1  2  1  0  0  0  0
  2  3  1  0  0  0  0
  3  4  1  0  0  0  0
  4 10  1  0  0  0  0
  4  5  2  0  0  0  0
  5  6  1  0  0  0  0
  6  7  2  0  0  0  0
  6 13  1  0  0  0  0
  7  8  1  0  0  0  0
  8  9  2  0  0  0  0
  8 10  1  0  0  0  0
 10 11  1  0  0  0  0
 11 12  3  0  0  0  0
 13 14  1  0  0  0  0
 14 15  2  0  0  0  0
 14 16  1  0  0  0  0
 16 17  1  0  0  0  0
 17 23  2  0  0  0  0
 17 18  1  0  0  0  0
 18 19  1  0  0  0  0
 18 20  2  0  0  0  0
 20 21  1  0  0  0  0
 21 22  2  0  0  0  0
 22 23  1  0  0  0  0
  1 24  1  0  0  0  0
  1 25  1  0  0  0  0
  1 26  1  0  0  0  0
  2 27  1  0  0  0  0
  2 28  1  0  0  0  0
  7 29  1  0  0  0  0
  9 30  1  0  0  0  0
 10 31  1  0  0  0  0
 13 32  1  0  0  0  0
 16 33  1  0  0  0  0
 16 34  1  0  0  0  0
 19 35  1  0  0  0  0
 19 36  1  0  0  0  0
 19 37  1  0  0  0  0
 20 38  1  0  0  0  0
 21 39  1  0  0  0  0
 22 40  1  0  0  0  0
 23 41  1  0  0  0  0
M  END
> <i_m_stars>
0

> <r_user_dG.exp>
-8.702592

$$$$
18628-1
  -OEChem-05192314073D
 Structure written by MMmdl.
 41 42  0     0  0  0  0  0  0999 V2000
   23.9605   12.3163   30.2947 C   0  0  0  0  0  0  0  0  0  0  0  0
   23.2559   10.9824   30.5536 C   0  0  0  0  0  0  0  0  0  0  0  0
   22.1036   11.2446   31.3514 O   0  0  0  0  0  0  0  0  0  0  0  0
   21.3110   10.1914   31.7754 C   0  0  0  0  0  0  0  0  0  0  0  0
   21.6913    8.9382   31.4088 N   0  0  0  0  0  0  0  0  0  0  0  0
   20.9227    7.9051   31.7793 C   0  0  0  0  0  0  0  0  0  0  0  0
   19.7725    8.0448   32.5397 C   0  0  0  0  0  0  0  0  0  0  0  0
   19.3904    9.3202   32.9187 C   0  0  0  0  0  0  0  0  0  0  0  0
   18.2233    9.3985   33.6687 N   0  0  0  0  0  0  0  0  0  0  0  0
   20.1628   10.4312   32.5383 C   0  0  0  0  0  0  0  0  0  0  0  0
   19.8175   11.8036   32.8910 C   0  0  0  0  0  0  0  0  0  0  0  0
   19.5528   12.8968   33.1655 N   0  0  0  0  0  0  0  0  0  0  0  0
   21.4664    6.7163   31.3474 N   0  0  0  0  0  0  0  0  0  0  0  0
   20.9017    5.5224   31.1455 C   0  0  0  0  0  0  0  0  0  0  0  0
   19.7006    5.3105   31.3000 O   0  0  0  0  0  0  0  0  0  0  0  0
   21.8103    4.3697   30.6812 C   0  0  0  0  0  0  0  0  0  0  0  0
   23.2677    4.7656   30.3673 C   0  0  0  0  0  0  0  0  0  0  0  0
   24.3654    4.2247   31.0652 C   0  0  0  0  0  0  0  0  0  0  0  0
   24.1953    3.1869   32.1607 C   0  0  0  0  0  0  0  0  0  0  0  0
   25.6604    4.6622   30.7690 C   0  0  0  0  0  0  0  0  0  0  0  0
   25.8785    5.6251   29.7872 C   0  0  0  0  0  0  0  0  0  0  0  0
   24.8016    6.1467   29.0788 C   0  0  0  0  0  0  0  0  0  0  0  0
   23.5087    5.7102   29.3592 C   0  0  0  0  0  0  0  0  0  0  0  0
   24.8562   12.1451   29.6796 H   0  0  0  0  0  0  0  0  0  0  0  0
   23.2763   12.9955   29.7649 H   0  0  0  0  0  0  0  0  0  0  0  0
   24.2552   12.7674   31.2537 H   0  0  0  0  0  0  0  0  0  0  0  0
   22.9540   10.5274   29.5987 H   0  0  0  0  0  0  0  0  0  0  0  0
   23.9329   10.2993   31.0875 H   0  0  0  0  0  0  0  0  0  0  0  0
   18.9432    7.6148   31.9589 H   0  0  0  0  0  0  0  0  0  0  0  0
   19.9170    7.4604   33.4603 H   0  0  0  0  0  0  0  0  0  0  0  0
   17.9946   10.3420   33.9083 H   0  0  0  0  0  0  0  0  0  0  0  0
   22.4466    6.7524   31.1525 H   0  0  0  0  0  0  0  0  0  0  0  0
   21.8282    3.6096   31.4761 H   0  0  0  0  0  0  0  0  0  0  0  0
   21.3717    3.9370   29.7699 H   0  0  0  0  0  0  0  0  0  0  0  0
   24.2402    2.1792   31.7220 H   0  0  0  0  0  0  0  0  0  0  0  0
   25.0006    3.3005   32.9014 H   0  0  0  0  0  0  0  0  0  0  0  0
   23.2218    3.3294   32.6527 H   0  0  0  0  0  0  0  0  0  0  0  0
   26.5002    4.2487   31.3076 H   0  0  0  0  0  0  0  0  0  0  0  0
   26.8814    5.9660   29.5764 H   0  0  0  0  0  0  0  0  0  0  0  0
   24.9673    6.8892   28.3122 H   0  0  0  0  0  0  0  0  0  0  0  0
   22.6793    6.1053   28.7915 H   0  0  0  0  0  0  0  0  0  0  0  0
  1  2  1  0  0  0  0
  2  3  1  0  0  0  0
  3  4  1  0  0  0  0
  4 10  2  0  0  0  0
  4  5  1  0  0  0  0
  5  6  2  0  0  0  0
  6  7  1  0  0  0  0
  6 13  1  0  0  0  0
  7  8  1  0  0  0  0
  8  9  2  0  0  0  0
  8 10  1  0  0  0  0
 10 11  1  0  0  0  0
 11 12  3  0  0  0  0
 13 14  1  0  0  0  0
 14 15  2  0  0  0  0
 14 16  1  0  0  0  0
 16 17  1  0  0  0  0
 17 23  2  0  0  0  0
 17 18  1  0  0  0  0
 18 19  1  0  0  0  0
 18 20  2  0  0  0  0
 20 21  1  0  0  0  0
 21 22  2  0  0  0  0
 22 23  1  0  0  0  0
  1 24  1  0  0  0  0
  1 25  1  0  0  0  0
  1 26  1  0  0  0  0
  2 27  1  0  0  0  0
  2 28  1  0  0  0  0
  7 29  1  0  0  0  0
  7 30  1  0  0  0  0
  9 31  1  0  0  0  0
 13 32  1  0  0  0  0
 16 33  1  0  0  0  0
 16 34  1  0  0  0  0
 19 35  1  0  0  0  0
 19 36  1  0  0  0  0
 19 37  1  0  0  0  0
 20 38  1  0  0  0  0
 21 39  1  0  0  0  0
 22 40  1  0  0  0  0
 23 41  1  0  0  0  0
M  END
> <i_m_stars>
0

> <r_user_dG.exp>
-8.702592

$$$$
18628-1
  -OEChem-05192314073D
 Structure written by MMmdl.
 41 42  0     1  0  0  0  0  0999 V2000
   23.9605   12.3163   30.2947 C   0  0  0  0  0  0  0  0  0  0  0  0
   23.2559   10.9824   30.5536 C   0  0  0  0  0  0  0  0  0  0  0  0
   22.1036   11.2446   31.3514 O   0  0  0  0  0  0  0  0  0  0  0  0
   21.3110   10.1914   31.7754 C   0  0  0  0  0  0  0  0  0  0  0  0
   21.6913    8.9382   31.4088 N   0  0  0  0  0  0  0  0  0  0  0  0
   20.9227    7.9051   31.7793 C   0  0  0  0  0  0  0  0  0  0  0  0
   19.7725    8.0448   32.5397 C   0  0  0  0  0  0  0  0  0  0  0  0
   19.3904    9.3202   32.9187 C   0  0  0  0  0  0  0  0  0  0  0  0
   18.2233    9.3985   33.6687 N   0  0  0  0  0  0  0  0  0  0  0  0
   20.1628   10.4312   32.5383 C   0  0  3  0  0  0  0  0  0  0  0  0
   19.8175   11.8036   32.8910 C   0  0  0  0  0  0  0  0  0  0  0  0
   19.5528   12.8968   33.1655 N   0  0  0  0  0  0  0  0  0  0  0  0
   21.4664    6.7163   31.3474 N   0  0  0  0  0  0  0  0  0  0  0  0
   20.9017    5.5224   31.1455 C   0  0  0  0  0  0  0  0  0  0  0  0
   19.7006    5.3105   31.3000 O   0  0  0  0  0  0  0  0  0  0  0  0
   21.8103    4.3697   30.6812 C   0  0  0  0  0  0  0  0  0  0  0  0
   23.2677    4.7656   30.3673 C   0  0  0  0  0  0  0  0  0  0  0  0
   24.3654    4.2247   31.0652 C   0  0  0  0  0  0  0  0  0  0  0  0
   24.1953    3.1869   32.1607 C   0  0  0  0  0  0  0  0  0  0  0  0
   25.6604    4.6622   30.7690 C   0  0  0  0  0  0  0  0  0  0  0  0
   25.8785    5.6251   29.7872 C   0  0  0  0  0  0  0  0  0  0  0  0
   24.8016    6.1467   29.0788 C   0  0  0  0  0  0  0  0  0  0  0  0
   23.5087    5.7102   29.3592 C   0  0  0  0  0  0  0  0  0  0  0  0
   24.8562   12.1451   29.6796 H   0  0  0  0  0  0  0  0  0  0  0  0
   23.2763   12.9955   29.7649 H   0  0  0  0  0  0  0  0  0  0  0  0
   24.2552   12.7674   31.2537 H   0  0  0  0  0  0  0  0  0  0  0  0
   22.9540   10.5274   29.5987 H   0  0  0  0  0  0  0  0  0  0  0  0
   23.9329   10.2993   31.0875 H   0  0  0  0  0  0  0  0  0  0  0  0
   19.1903    7.1823   32.8286 H   0  0  0  0  0  0  0  0  0  0  0  0
   18.0332   10.3546   33.8916 H   0  0  0  0  0  0  0  0  0  0  0  0
   17.4621    9.0217   33.1409 H   0  0  0  0  0  0  0  0  0  0  0  0
   20.7538   10.3399   33.4615 H   0  0  0  0  0  0  0  0  0  0  0  0
   21.8282    3.6096   31.4761 H   0  0  0  0  0  0  0  0  0  0  0  0
   21.3717    3.9370   29.7699 H   0  0  0  0  0  0  0  0  0  0  0  0
   24.2402    2.1792   31.7220 H   0  0  0  0  0  0  0  0  0  0  0  0
   25.0006    3.3005   32.9014 H   0  0  0  0  0  0  0  0  0  0  0  0
   23.2218    3.3294   32.6527 H   0  0  0  0  0  0  0  0  0  0  0  0
   26.5002    4.2487   31.3076 H   0  0  0  0  0  0  0  0  0  0  0  0
   26.8814    5.9660   29.5764 H   0  0  0  0  0  0  0  0  0  0  0  0
   24.9673    6.8892   28.3122 H   0  0  0  0  0  0  0  0  0  0  0  0
   22.6793    6.1053   28.7915 H   0  0  0  0  0  0  0  0  0  0  0  0
  1  2  1  0  0  0  0
  2  3  1  0  0  0  0
  3  4  1  0  0  0  0
  4 10  1  0  0  0  0
  4  5  2  0  0  0  0
  5  6  1  0  0  0  0
  6  7  1  0  0  0  0
  6 13  2  0  0  0  0
  7  8  2  0  0  0  0
  8  9  1  0  0  0  0
  8 10  1  0  0  0  0
 10 11  1  0  0  0  0
 11 12  3  0  0  0  0
 13 14  1  0  0  0  0
 14 15  2  0  0  0  0
 14 16  1  0  0  0  0
 16 17  1  0  0  0  0
 17 23  2  0  0  0  0
 17 18  1  0  0  0  0
 18 19  1  0  0  0  0
 18 20  2  0  0  0  0
 20 21  1  0  0  0  0
 21 22  2  0  0  0  0
 22 23  1  0  0  0  0
  1 24  1  0  0  0  0
  1 25  1  0  0  0  0
  1 26  1  0  0  0  0
  2 27  1  0  0  0  0
  2 28  1  0  0  0  0
  7 29  1  0  0  0  0
  9 30  1  0  0  0  0
  9 31  1  0  0  0  0
 10 32  1  0  0  0  0
 16 33  1  0  0  0  0
 16 34  1  0  0  0  0
 19 35  1  0  0  0  0
 19 36  1  0  0  0  0
 19 37  1  0  0  0  0
 20 38  1  0  0  0  0
 21 39  1  0  0  0  0
 22 40  1  0  0  0  0
 23 41  1  0  0  0  0
M  END
> <i_m_stars>
0

> <r_user_dG.exp>
-8.702592

$$$$
18628-1
  -OEChem-05192314073D
 Structure written by MMmdl.
 41 42  0     0  0  0  0  0  0999 V2000
   23.9605   12.3163   30.2947 C   0  0  0  0  0  0  0  0  0  0  0  0
   23.2559   10.9824   30.5536 C   0  0  0  0  0  0  0  0  0  0  0  0
   22.1036   11.2446   31.3514 O   0  0  0  0  0  0  0  0  0  0  0  0
   21.3110   10.1914   31.7754 C   0  0  0  0  0  0  0  0  0  0  0  0
   21.6913    8.9382   31.4088 N   0  0  0  0  0  0  0  0  0  0  0  0
   20.9227    7.9051   31.7793 C   0  0  0  0  0  0  0  0  0  0  0  0
   19.7725    8.0448   32.5397 C   0  0  0  0  0  0  0  0  0  0  0  0
   19.3904    9.3202   32.9187 C   0  0  0  0  0  0  0  0  0  0  0  0
   18.2233    9.3985   33.6687 N   0  0  0  0  0  0  0  0  0  0  0  0
   20.1628   10.4312   32.5383 C   0  0  0  0  0  0  0  0  0  0  0  0
   19.8175   11.8036   32.8910 C   0  0  0  0  0  0  0  0  0  0  0  0
   19.5528   12.8968   33.1655 N   0  0  0  0  0  0  0  0  0  0  0  0
   21.4664    6.7163   31.3474 N   0  0  0  0  0  0  0  0  0  0  0  0
   20.9017    5.5224   31.1455 C   0  0  0  0  0  0  0  0  0  0  0  0
   19.7006    5.3105   31.3000 O   0  0  0  0  0  0  0  0  0  0  0  0
   21.8103    4.3697   30.6812 C   0  0  0  0  0  0  0  0  0  0  0  0
   23.2677    4.7656   30.3673 C   0  0  0  0  0  0  0  0  0  0  0  0
   24.3654    4.2247   31.0652 C   0  0  0  0  0  0  0  0  0  0  0  0
   24.1953    3.1869   32.1607 C   0  0  0  0  0  0  0  0  0  0  0  0
   25.6604    4.6622   30.7690 C   0  0  0  0  0  0  0  0  0  0  0  0
   25.8785    5.6251   29.7872 C   0  0  0  0  0  0  0  0  0  0  0  0
   24.8016    6.1467   29.0788 C   0  0  0  0  0  0  0  0  0  0  0  0
   23.5087    5.7102   29.3592 C   0  0  0  0  0  0  0  0  0  0  0  0
   24.8562   12.1451   29.6796 H   0  0  0  0  0  0  0  0  0  0  0  0
   23.2763   12.9955   29.7649 H   0  0  0  0  0  0  0  0  0  0  0  0
   24.2552   12.7674   31.2537 H   0  0  0  0  0  0  0  0  0  0  0  0
   22.9540   10.5274   29.5987 H   0  0  0  0  0  0  0  0  0  0  0  0
   23.9329   10.2993   31.0875 H   0  0  0  0  0  0  0  0  0  0  0  0
   18.9432    7.6148   31.9589 H   0  0  0  0  0  0  0  0  0  0  0  0
   19.9170    7.4604   33.4603 H   0  0  0  0  0  0  0  0  0  0  0  0
   18.0332   10.3546   33.8916 H   0  0  0  0  0  0  0  0  0  0  0  0
   17.4621    9.0217   33.1409 H   0  0  0  0  0  0  0  0  0  0  0  0
   21.8282    3.6096   31.4761 H   0  0  0  0  0  0  0  0  0  0  0  0
   21.3717    3.9370   29.7699 H   0  0  0  0  0  0  0  0  0  0  0  0
   24.2402    2.1792   31.7220 H   0  0  0  0  0  0  0  0  0  0  0  0
   25.0006    3.3005   32.9014 H   0  0  0  0  0  0  0  0  0  0  0  0
   23.2218    3.3294   32.6527 H   0  0  0  0  0  0  0  0  0  0  0  0
   26.5002    4.2487   31.3076 H   0  0  0  0  0  0  0  0  0  0  0  0
   26.8814    5.9660   29.5764 H   0  0  0  0  0  0  0  0  0  0  0  0
   24.9673    6.8892   28.3122 H   0  0  0  0  0  0  0  0  0  0  0  0
   22.6793    6.1053   28.7915 H   0  0  0  0  0  0  0  0  0  0  0  0
  1  2  1  0  0  0  0
  2  3  1  0  0  0  0
  3  4  1  0  0  0  0
  4 10  1  0  0  0  0
  4  5  2  0  0  0  0
  5  6  1  0  0  0  0
  6  7  1  0  0  0  0
  6 13  2  0  0  0  0
  7  8  1  0  0  0  0
  8  9  1  0  0  0  0
  8 10  2  0  0  0  0
 10 11  1  0  0  0  0
 11 12  3  0  0  0  0
 13 14  1  0  0  0  0
 14 15  2  0  0  0  0
 14 16  1  0  0  0  0
 16 17  1  0  0  0  0
 17 23  2  0  0  0  0
 17 18  1  0  0  0  0
 18 19  1  0  0  0  0
 18 20  2  0  0  0  0
 20 21  1  0  0  0  0
 21 22  2  0  0  0  0
 22 23  1  0  0  0  0
  1 24  1  0  0  0  0
  1 25  1  0  0  0  0
  1 26  1  0  0  0  0
  2 27  1  0  0  0  0
  2 28  1  0  0  0  0
  7 29  1  0  0  0  0
  7 30  1  0  0  0  0
  9 31  1  0  0  0  0
  9 32  1  0  0  0  0
 16 33  1  0  0  0  0
 16 34  1  0  0  0  0
 19 35  1  0  0  0  0
 19 36  1  0  0  0  0
 19 37  1  0  0  0  0
 20 38  1  0  0  0  0
 21 39  1  0  0  0  0
 22 40  1  0  0  0  0
 23 41  1  0  0  0  0
M  END
> <i_m_stars>
0

> <r_user_dG.exp>
-8.702592

$$$$
18628-1
  -OEChem-05192314073D
 Structure written by MMmdl.
 41 42  0     0  0  0  0  0  0999 V2000
   23.9605   12.3163   30.2947 C   0  0  0  0  0  0  0  0  0  0  0  0
   23.2559   10.9824   30.5536 C   0  0  0  0  0  0  0  0  0  0  0  0
   22.1036   11.2446   31.3514 O   0  0  0  0  0  0  0  0  0  0  0  0
   21.3110   10.1914   31.7754 C   0  0  0  0  0  0  0  0  0  0  0  0
   21.6913    8.9382   31.4088 N   0  0  0  0  0  0  0  0  0  0  0  0
   20.9227    7.9051   31.7793 C   0  0  0  0  0  0  0  0  0  0  0  0
   19.7725    8.0448   32.5397 C   0  0  0  0  0  0  0  0  0  0  0  0
   19.3904    9.3202   32.9187 C   0  0  0  0  0  0  0  0  0  0  0  0
   18.2233    9.3985   33.6687 N   0  0  0  0  0  0  0  0  0  0  0  0
   20.1628   10.4312   32.5383 C   0  0  0  0  0  0  0  0  0  0  0  0
   19.8175   11.8036   32.8910 C   0  0  0  0  0  0  0  0  0  0  0  0
   19.5528   12.8968   33.1655 N   0  0  0  0  0  0  0  0  0  0  0  0
   21.4664    6.7163   31.3474 N   0  0  0  0  0  0  0  0  0  0  0  0
   20.9017    5.5224   31.1455 C   0  0  0  0  0  0  0  0  0  0  0  0
   19.7006    5.3105   31.3000 O   0  0  0  0  0  0  0  0  0  0  0  0
   21.8103    4.3697   30.6812 C   0  0  0  0  0  0  0  0  0  0  0  0
   23.2677    4.7656   30.3673 C   0  0  0  0  0  0  0  0  0  0  0  0
   24.3654    4.2247   31.0652 C   0  0  0  0  0  0  0  0  0  0  0  0
   24.1953    3.1869   32.1607 C   0  0  0  0  0  0  0  0  0  0  0  0
   25.6604    4.6622   30.7690 C   0  0  0  0  0  0  0  0  0  0  0  0
   25.8785    5.6251   29.7872 C   0  0  0  0  0  0  0  0  0  0  0  0
   24.8016    6.1467   29.0788 C   0  0  0  0  0  0  0  0  0  0  0  0
   23.5087    5.7102   29.3592 C   0  0  0  0  0  0  0  0  0  0  0  0
   24.8562   12.1451   29.6796 H   0  0  0  0  0  0  0  0  0  0  0  0
   23.2763   12.9955   29.7649 H   0  0  0  0  0  0  0  0  0  0  0  0
   24.2552   12.7674   31.2537 H   0  0  0  0  0  0  0  0  0  0  0  0
   22.9540   10.5274   29.5987 H   0  0  0  0  0  0  0  0  0  0  0  0
   23.9329   10.2993   31.0875 H   0  0  0  0  0  0  0  0  0  0  0  0
   22.5244    8.7913   30.8756 H   0  0  0  0  0  0  0  0  0  0  0  0
   18.9432    7.6148   31.9589 H   0  0  0  0  0  0  0  0  0  0  0  0
   19.9170    7.4604   33.4603 H   0  0  0  0  0  0  0  0  0  0  0  0
   17.9946   10.3420   33.9083 H   0  0  0  0  0  0  0  0  0  0  0  0
   21.8282    3.6096   31.4761 H   0  0  0  0  0  0  0  0  0  0  0  0
   21.3717    3.9370   29.7699 H   0  0  0  0  0  0  0  0  0  0  0  0
   24.2402    2.1792   31.7220 H   0  0  0  0  0  0  0  0  0  0  0  0
   25.0006    3.3005   32.9014 H   0  0  0  0  0  0  0  0  0  0  0  0
   23.2218    3.3294   32.6527 H   0  0  0  0  0  0  0  0  0  0  0  0
   26.5002    4.2487   31.3076 H   0  0  0  0  0  0  0  0  0  0  0  0
   26.8814    5.9660   29.5764 H   0  0  0  0  0  0  0  0  0  0  0  0
   24.9673    6.8892   28.3122 H   0  0  0  0  0  0  0  0  0  0  0  0
   22.6793    6.1053   28.7915 H   0  0  0  0  0  0  0  0  0  0  0  0
  1  2  1  0  0  0  0
  2  3  1  0  0  0  0
  3  4  1  0  0  0  0
  4 10  2  0  0  0  0
  4  5  1  0  0  0  0
  5  6  1  0  0  0  0
  6  7  1  0  0  0  0
  6 13  2  0  0  0  0
  7  8  1  0  0  0  0
  8  9  2  0  0  0  0
  8 10  1  0  0  0  0
 10 11  1  0  0  0  0
 11 12  3  0  0  0  0
 13 14  1  0  0  0  0
 14 15  2  0  0  0  0
 14 16  1  0  0  0  0
 16 17  1  0  0  0  0
 17 23  2  0  0  0  0
 17 18  1  0  0  0  0
 18 19  1  0  0  0  0
 18 20  2  0  0  0  0
 20 21  1  0  0  0  0
 21 22  2  0  0  0  0
 22 23  1  0  0  0  0
  1 24  1  0  0  0  0
  1 25  1  0  0  0  0
  1 26  1  0  0  0  0
  2 27  1  0  0  0  0
  2 28  1  0  0  0  0
  5 29  1  0  0  0  0
  7 30  1  0  0  0  0
  7 31  1  0  0  0  0
  9 32  1  0  0  0  0
 16 33  1  0  0  0  0
 16 34  1  0  0  0  0
 19 35  1  0  0  0  0
 19 36  1  0  0  0  0
 19 37  1  0  0  0  0
 20 38  1  0  0  0  0
 21 39  1  0  0  0  0
 22 40  1  0  0  0  0
 23 41  1  0  0  0  0
M  END
> <i_m_stars>
0

> <r_user_dG.exp>
-8.702592

$$$$
18628-1
  -OEChem-05192314073D
 Structure written by MMmdl.
 41 42  0     1  0  0  0  0  0999 V2000
   23.9605   12.3163   30.2947 C   0  0  0  0  0  0  0  0  0  0  0  0
   23.2559   10.9824   30.5536 C   0  0  0  0  0  0  0  0  0  0  0  0
   22.1036   11.2446   31.3514 O   0  0  0  0  0  0  0  0  0  0  0  0
   21.3110   10.1914   31.7754 C   0  0  0  0  0  0  0  0  0  0  0  0
   21.6913    8.9382   31.4088 N   0  0  0  0  0  0  0  0  0  0  0  0
   20.9227    7.9051   31.7793 C   0  0  0  0  0  0  0  0  0  0  0  0
   19.7725    8.0448   32.5397 C   0  0  0  0  0  0  0  0  0  0  0  0
   19.3904    9.3202   32.9187 C   0  0  0  0  0  0  0  0  0  0  0  0
   18.2233    9.3985   33.6687 N   0  0  0  0  0  0  0  0  0  0  0  0
   20.1628   10.4312   32.5383 C   0  0  3  0  0  0  0  0  0  0  0  0
   19.8175   11.8036   32.8910 C   0  0  0  0  0  0  0  0  0  0  0  0
   19.5528   12.8968   33.1655 N   0  0  0  0  0  0  0  0  0  0  0  0
   21.4664    6.7163   31.3474 N   0  0  0  0  0  0  0  0  0  0  0  0
   20.9017    5.5224   31.1455 C   0  0  0  0  0  0  0  0  0  0  0  0
   19.7006    5.3105   31.3000 O   0  0  0  0  0  0  0  0  0  0  0  0
   21.8103    4.3697   30.6812 C   0  0  0  0  0  0  0  0  0  0  0  0
   23.2677    4.7656   30.3673 C   0  0  0  0  0  0  0  0  0  0  0  0
   24.3654    4.2247   31.0652 C   0  0  0  0  0  0  0  0  0  0  0  0
   24.1953    3.1869   32.1607 C   0  0  0  0  0  0  0  0  0  0  0  0
   25.6604    4.6622   30.7690 C   0  0  0  0  0  0  0  0  0  0  0  0
   25.8785    5.6251   29.7872 C   0  0  0  0  0  0  0  0  0  0  0  0
   24.8016    6.1467   29.0788 C   0  0  0  0  0  0  0  0  0  0  0  0
   23.5087    5.7102   29.3592 C   0  0  0  0  0  0  0  0  0  0  0  0
   24.8562   12.1451   29.6796 H   0  0  0  0  0  0  0  0  0  0  0  0
   23.2763   12.9955   29.7649 H   0  0  0  0  0  0  0  0  0  0  0  0
   24.2552   12.7674   31.2537 H   0  0  0  0  0  0  0  0  0  0  0  0
   22.9540   10.5274   29.5987 H   0  0  0  0  0  0  0  0  0  0  0  0
   23.9329   10.2993   31.0875 H   0  0  0  0  0  0  0  0  0  0  0  0
   19.1903    7.1823   32.8286 H   0  0  0  0  0  0  0  0  0  0  0  0
   17.9946   10.3420   33.9083 H   0  0  0  0  0  0  0  0  0  0  0  0
   20.7538   10.3399   33.4615 H   0  0  0  0  0  0  0  0  0  0  0  0
   19.5114    4.4003   31.1044 H   0  0  0  0  0  0  0  0  0  0  0  0
   21.8282    3.6096   31.4761 H   0  0  0  0  0  0  0  0  0  0  0  0
   21.3717    3.9370   29.7699 H   0  0  0  0  0  0  0  0  0  0  0  0
   24.2402    2.1792   31.7220 H   0  0  0  0  0  0  0  0  0  0  0  0
   25.0006    3.3005   32.9014 H   0  0  0  0  0  0  0  0  0  0  0  0
   23.2218    3.3294   32.6527 H   0  0  0  0  0  0  0  0  0  0  0  0
   26.5002    4.2487   31.3076 H   0  0  0  0  0  0  0  0  0  0  0  0
   26.8814    5.9660   29.5764 H   0  0  0  0  0  0  0  0  0  0  0  0
   24.9673    6.8892   28.3122 H   0  0  0  0  0  0  0  0  0  0  0  0
   22.6793    6.1053   28.7915 H   0  0  0  0  0  0  0  0  0  0  0  0
  1  2  1  0  0  0  0
  2  3  1  0  0  0  0
  3  4  1  0  0  0  0
  4 10  1  0  0  0  0
  4  5  2  0  0  0  0
  5  6  1  0  0  0  0
  6  7  2  0  0  0  0
  6 13  1  0  0  0  0
  7  8  1  0  0  0  0
  8  9  2  0  0  0  0
  8 10  1  0  0  0  0
 10 11  1  0  0  0  0
 11 12  3  0  0  0  0
 13 14  2  0  0  0  0
 14 15  1  0  0  0  0
 14 16  1  0  0  0  0
 16 17  1  0  0  0  0
 17 23  2  0  0  0  0
 17 18  1  0  0  0  0
 18 19  1  0  0  0  0
 18 20  2  0  0  0  0
 20 21  1  0  0  0  0
 21 22  2  0  0  0  0
 22 23  1  0  0  0  0
  1 24  1  0  0  0  0
  1 25  1  0  0  0  0
  1 26  1  0  0  0  0
  2 27  1  0  0  0  0
  2 28  1  0  0  0  0
  7 29  1  0  0  0  0
  9 30  1  0  0  0  0
 10 31  1  0  0  0  0
 15 32  1  0  0  0  0
 16 33  1  0  0  0  0
 16 34  1  0  0  0  0
 19 35  1  0  0  0  0
 19 36  1  0  0  0  0
 19 37  1  0  0  0  0
 20 38  1  0  0  0  0
 21 39  1  0  0  0  0
 22 40  1  0  0  0  0
 23 41  1  0  0  0  0
M  END
> <i_m_stars>
0

> <r_user_dG.exp>
-8.702592

$$$$
18628-1
  -OEChem-05192314073D
 Structure written by MMmdl.
 41 42  0     0  0  0  0  0  0999 V2000
   23.9605   12.3163   30.2947 C   0  0  0  0  0  0  0  0  0  0  0  0
   23.2559   10.9824   30.5536 C   0  0  0  0  0  0  0  0  0  0  0  0
   22.1036   11.2446   31.3514 O   0  0  0  0  0  0  0  0  0  0  0  0
   21.3110   10.1914   31.7754 C   0  0  0  0  0  0  0  0  0  0  0  0
   21.6913    8.9382   31.4088 N   0  0  0  0  0  0  0  0  0  0  0  0
   20.9227    7.9051   31.7793 C   0  0  0  0  0  0  0  0  0  0  0  0
   19.7725    8.0448   32.5397 C   0  0  0  0  0  0  0  0  0  0  0  0
   19.3904    9.3202   32.9187 C   0  0  0  0  0  0  0  0  0  0  0  0
   18.2233    9.3985   33.6687 N   0  0  0  0  0  0  0  0  0  0  0  0
   20.1628   10.4312   32.5383 C   0  0  0  0  0  0  0  0  0  0  0  0
   19.8175   11.8036   32.8910 C   0  0  0  0  0  0  0  0  0  0  0  0
   19.5528   12.8968   33.1655 N   0  0  0  0  0  0  0  0  0  0  0  0
   21.4664    6.7163   31.3474 N   0  0  0  0  0  0  0  0  0  0  0  0
   20.9017    5.5224   31.1455 C   0  0  0  0  0  0  0  0  0  0  0  0
   19.7006    5.3105   31.3000 O   0  0  0  0  0  0  0  0  0  0  0  0
   21.8103    4.3697   30.6812 C   0  0  0  0  0  0  0  0  0  0  0  0
   23.2677    4.7656   30.3673 C   0  0  0  0  0  0  0  0  0  0  0  0
   24.3654    4.2247   31.0652 C   0  0  0  0  0  0  0  0  0  0  0  0
   24.1953    3.1869   32.1607 C   0  0  0  0  0  0  0  0  0  0  0  0
   25.6604    4.6622   30.7690 C   0  0  0  0  0  0  0  0  0  0  0  0
   25.8785    5.6251   29.7872 C   0  0  0  0  0  0  0  0  0  0  0  0
   24.8016    6.1467   29.0788 C   0  0  0  0  0  0  0  0  0  0  0  0
   23.5087    5.7102   29.3592 C   0  0  0  0  0  0  0  0  0  0  0  0
   24.8562   12.1451   29.6796 H   0  0  0  0  0  0  0  0  0  0  0  0
   23.2763   12.9955   29.7649 H   0  0  0  0  0  0  0  0  0  0  0  0
   24.2552   12.7674   31.2537 H   0  0  0  0  0  0  0  0  0  0  0  0
   22.9540   10.5274   29.5987 H   0  0  0  0  0  0  0  0  0  0  0  0
   23.9329   10.2993   31.0875 H   0  0  0  0  0  0  0  0  0  0  0  0
   18.9432    7.6148   31.9589 H   0  0  0  0  0  0  0  0  0  0  0  0
   19.9170    7.4604   33.4603 H   0  0  0  0  0  0  0  0  0  0  0  0
   17.9946   10.3420   33.9083 H   0  0  0  0  0  0  0  0  0  0  0  0
   19.5114    4.4003   31.1044 H   0  0  0  0  0  0  0  0  0  0  0  0
   21.8282    3.6096   31.4761 H   0  0  0  0  0  0  0  0  0  0  0  0
   21.3717    3.9370   29.7699 H   0  0  0  0  0  0  0  0  0  0  0  0
   24.2402    2.1792   31.7220 H   0  0  0  0  0  0  0  0  0  0  0  0
   25.0006    3.3005   32.9014 H   0  0  0  0  0  0  0  0  0  0  0  0
   23.2218    3.3294   32.6527 H   0  0  0  0  0  0  0  0  0  0  0  0
   26.5002    4.2487   31.3076 H   0  0  0  0  0  0  0  0  0  0  0  0
   26.8814    5.9660   29.5764 H   0  0  0  0  0  0  0  0  0  0  0  0
   24.9673    6.8892   28.3122 H   0  0  0  0  0  0  0  0  0  0  0  0
   22.6793    6.1053   28.7915 H   0  0  0  0  0  0  0  0  0  0  0  0
  1  2  1  0  0  0  0
  2  3  1  0  0  0  0
  3  4  1  0  0  0  0
  4 10  2  0  0  0  0
  4  5  1  0  0  0  0
  5  6  2  0  0  0  0
  6  7  1  0  0  0  0
  6 13  1  0  0  0  0
  7  8  1  0  0  0  0
  8  9  2  0  0  0  0
  8 10  1  0  0  0  0
 10 11  1  0  0  0  0
 11 12  3  0  0  0  0
 13 14  2  0  0  0  0
 14 15  1  0  0  0  0
 14 16  1  0  0  0  0
 16 17  1  0  0  0  0
 17 23  2  0  0  0  0
 17 18  1  0  0  0  0
 18 19  1  0  0  0  0
 18 20  2  0  0  0  0
 20 21  1  0  0  0  0
 21 22  2  0  0  0  0
 22 23  1  0  0  0  0
  1 24  1  0  0  0  0
  1 25  1  0  0  0  0
  1 26  1  0  0  0  0
  2 27  1  0  0  0  0
  2 28  1  0  0  0  0
  7 29  1  0  0  0  0
  7 30  1  0  0  0  0
  9 31  1  0  0  0  0
 15 32  1  0  0  0  0
 16 33  1  0  0  0  0
 16 34  1  0  0  0  0
 19 35  1  0  0  0  0
 19 36  1  0  0  0  0
 19 37  1  0  0  0  0
 20 38  1  0  0  0  0
 21 39  1  0  0  0  0
 22 40  1  0  0  0  0
 23 41  1  0  0  0  0
M  END
> <i_m_stars>
0

> <r_user_dG.exp>
-8.702592

$$$$
