18626-1
  -OEChem-05192314073D
 Structure written by MMmdl.
 38 39  0     0  0  0  0  0  0999 V2000
   23.9635   12.4497   30.2903 C   0  0  0  0  0  0  0  0  0  0  0  0
   23.2574   11.1110   30.5189 C   0  0  0  0  0  0  0  0  0  0  0  0
   22.1169   11.3548   31.3379 O   0  0  0  0  0  0  0  0  0  0  0  0
   21.3337   10.2929   31.7571 C   0  0  0  0  0  0  0  0  0  0  0  0
   21.7030    9.0460   31.3553 N   0  0  0  0  0  0  0  0  0  0  0  0
   20.9397    8.0077   31.7246 C   0  0  0  0  0  0  0  0  0  0  0  0
   19.8167    8.1342   32.5272 C   0  0  0  0  0  0  0  0  0  0  0  0
   19.4419    9.4023   32.9317 C   0  0  0  0  0  0  0  0  0  0  0  0
   18.2880    9.4650   33.7017 N   0  0  0  0  0  0  0  0  0  0  0  0
   20.2000   10.5200   32.5451 C   0  0  0  0  0  0  0  0  0  0  0  0
   19.8477   11.8875   32.9079 C   0  0  0  0  0  0  0  0  0  0  0  0
   19.5764   12.9770   33.1888 N   0  0  0  0  0  0  0  0  0  0  0  0
   21.4299    6.8386   31.1872 N   0  0  0  0  0  0  0  0  0  0  0  0
   20.8469    5.6461   31.0336 C   0  0  0  0  0  0  0  0  0  0  0  0
   19.7112    5.3701   31.4141 O   0  0  0  0  0  0  0  0  0  0  0  0
   21.6405    4.6099   30.2450 C   0  0  0  0  0  0  0  0  0  0  0  0
   23.0890    4.4692   30.6919 C   0  0  0  0  0  0  0  0  0  0  0  0
   23.4115    3.6311   31.7625 C   0  0  0  0  0  0  0  0  0  0  0  0
   24.7308    3.5231   32.1964 C   0  0  0  0  0  0  0  0  0  0  0  0
   25.1131    2.5196   33.5455 Cl  0  0  0  0  0  0  0  0  0  0  0  0
   25.7377    4.2389   31.5498 C   0  0  0  0  0  0  0  0  0  0  0  0
   25.4251    5.0710   30.4731 C   0  0  0  0  0  0  0  0  0  0  0  0
   24.1019    5.1880   30.0463 C   0  0  0  0  0  0  0  0  0  0  0  0
   24.8509   12.2937   29.6593 H   0  0  0  0  0  0  0  0  0  0  0  0
   23.2753   13.1462   29.7891 H   0  0  0  0  0  0  0  0  0  0  0  0
   24.2716   12.8716   31.2583 H   0  0  0  0  0  0  0  0  0  0  0  0
   22.9419   10.6849   29.5551 H   0  0  0  0  0  0  0  0  0  0  0  0
   23.9382   10.4103   31.0243 H   0  0  0  0  0  0  0  0  0  0  0  0
   19.2497    7.2658   32.8285 H   0  0  0  0  0  0  0  0  0  0  0  0
   18.0996   10.4168   33.9439 H   0  0  0  0  0  0  0  0  0  0  0  0
   17.5189    9.0954   33.1802 H   0  0  0  0  0  0  0  0  0  0  0  0
   22.3732    6.8902   30.8594 H   0  0  0  0  0  0  0  0  0  0  0  0
   21.1463    3.6340   30.3608 H   0  0  0  0  0  0  0  0  0  0  0  0
   21.6323    4.9015   29.1844 H   0  0  0  0  0  0  0  0  0  0  0  0
   22.6350    3.0650   32.2554 H   0  0  0  0  0  0  0  0  0  0  0  0
   26.7613    4.1495   31.8825 H   0  0  0  0  0  0  0  0  0  0  0  0
   26.2061    5.6231   29.9715 H   0  0  0  0  0  0  0  0  0  0  0  0
   23.8586    5.8345   29.2161 H   0  0  0  0  0  0  0  0  0  0  0  0
  1  2  1  0  0  0  0
  2  3  1  0  0  0  0
  3  4  1  0  0  0  0
  4 10  2  0  0  0  0
  4  5  1  0  0  0  0
  5  6  2  0  0  0  0
  6  7  1  0  0  0  0
  6 13  1  0  0  0  0
  7  8  2  0  0  0  0
  8  9  1  0  0  0  0
  8 10  1  0  0  0  0
 10 11  1  0  0  0  0
 11 12  3  0  0  0  0
 13 14  1  0  0  0  0
 14 15  2  0  0  0  0
 14 16  1  0  0  0  0
 16 17  1  0  0  0  0
 17 23  2  0  0  0  0
 17 18  1  0  0  0  0
 18 19  2  0  0  0  0
 19 20  1  0  0  0  0
 19 21  1  0  0  0  0
 21 22  2  0  0  0  0
 22 23  1  0  0  0  0
  1 24  1  0  0  0  0
  1 25  1  0  0  0  0
  1 26  1  0  0  0  0
  2 27  1  0  0  0  0
  2 28  1  0  0  0  0
  7 29  1  0  0  0  0
  9 30  1  0  0  0  0
  9 31  1  0  0  0  0
 13 32  1  0  0  0  0
 16 33  1  0  0  0  0
 16 34  1  0  0  0  0
 18 35  1  0  0  0  0
 21 36  1  0  0  0  0
 22 37  1  0  0  0  0
 23 38  1  0  0  0  0
M  END
> <i_m_stars>
0

> <r_user_dG.exp>
-8.872536

$$$$
18626-1
  -OEChem-05192314073D
 Structure written by MMmdl.
 38 39  0     0  0  0  0  0  0999 V2000
   23.9635   12.4497   30.2903 C   0  0  0  0  0  0  0  0  0  0  0  0
   23.2574   11.1110   30.5189 C   0  0  0  0  0  0  0  0  0  0  0  0
   22.1169   11.3548   31.3379 O   0  0  0  0  0  0  0  0  0  0  0  0
   21.3337   10.2929   31.7571 C   0  0  0  0  0  0  0  0  0  0  0  0
   21.7030    9.0460   31.3553 N   0  0  0  0  0  0  0  0  0  0  0  0
   20.9397    8.0077   31.7246 C   0  0  0  0  0  0  0  0  0  0  0  0
   19.8167    8.1342   32.5272 C   0  0  0  0  0  0  0  0  0  0  0  0
   19.4419    9.4023   32.9317 C   0  0  0  0  0  0  0  0  0  0  0  0
   18.2880    9.4650   33.7017 N   0  0  0  0  0  0  0  0  0  0  0  0
   20.2000   10.5200   32.5451 C   0  0  0  0  0  0  0  0  0  0  0  0
   19.8477   11.8875   32.9079 C   0  0  0  0  0  0  0  0  0  0  0  0
   19.5764   12.9770   33.1888 N   0  0  0  0  0  0  0  0  0  0  0  0
   21.4299    6.8386   31.1872 N   0  0  0  0  0  0  0  0  0  0  0  0
   20.8469    5.6461   31.0336 C   0  0  0  0  0  0  0  0  0  0  0  0
   19.7112    5.3701   31.4141 O   0  0  0  0  0  0  0  0  0  0  0  0
   21.6405    4.6099   30.2450 C   0  0  0  0  0  0  0  0  0  0  0  0
   23.0890    4.4692   30.6919 C   0  0  0  0  0  0  0  0  0  0  0  0
   23.4115    3.6311   31.7625 C   0  0  0  0  0  0  0  0  0  0  0  0
   24.7308    3.5231   32.1964 C   0  0  0  0  0  0  0  0  0  0  0  0
   25.1131    2.5196   33.5455 Cl  0  0  0  0  0  0  0  0  0  0  0  0
   25.7377    4.2389   31.5498 C   0  0  0  0  0  0  0  0  0  0  0  0
   25.4251    5.0710   30.4731 C   0  0  0  0  0  0  0  0  0  0  0  0
   24.1019    5.1880   30.0463 C   0  0  0  0  0  0  0  0  0  0  0  0
   24.8509   12.2937   29.6593 H   0  0  0  0  0  0  0  0  0  0  0  0
   23.2753   13.1462   29.7891 H   0  0  0  0  0  0  0  0  0  0  0  0
   24.2716   12.8716   31.2583 H   0  0  0  0  0  0  0  0  0  0  0  0
   22.9419   10.6849   29.5551 H   0  0  0  0  0  0  0  0  0  0  0  0
   23.9382   10.4103   31.0243 H   0  0  0  0  0  0  0  0  0  0  0  0
   19.2497    7.2658   32.8285 H   0  0  0  0  0  0  0  0  0  0  0  0
   18.0996   10.4168   33.9439 H   0  0  0  0  0  0  0  0  0  0  0  0
   17.5189    9.0954   33.1802 H   0  0  0  0  0  0  0  0  0  0  0  0
   19.5144    4.4667   31.1959 H   0  0  0  0  0  0  0  0  0  0  0  0
   21.1463    3.6340   30.3608 H   0  0  0  0  0  0  0  0  0  0  0  0
   21.6323    4.9015   29.1844 H   0  0  0  0  0  0  0  0  0  0  0  0
   22.6350    3.0650   32.2554 H   0  0  0  0  0  0  0  0  0  0  0  0
   26.7613    4.1495   31.8825 H   0  0  0  0  0  0  0  0  0  0  0  0
   26.2061    5.6231   29.9715 H   0  0  0  0  0  0  0  0  0  0  0  0
   23.8586    5.8345   29.2161 H   0  0  0  0  0  0  0  0  0  0  0  0
  1  2  1  0  0  0  0
  2  3  1  0  0  0  0
  3  4  1  0  0  0  0
  4 10  2  0  0  0  0
  4  5  1  0  0  0  0
  5  6  2  0  0  0  0
  6  7  1  0  0  0  0
  6 13  1  0  0  0  0
  7  8  2  0  0  0  0
  8  9  1  0  0  0  0
  8 10  1  0  0  0  0
 10 11  1  0  0  0  0
 11 12  3  0  0  0  0
 13 14  2  0  0  0  0
 14 15  1  0  0  0  0
 14 16  1  0  0  0  0
 16 17  1  0  0  0  0
 17 23  2  0  0  0  0
 17 18  1  0  0  0  0
 18 19  2  0  0  0  0
 19 20  1  0  0  0  0
 19 21  1  0  0  0  0
 21 22  2  0  0  0  0
 22 23  1  0  0  0  0
  1 24  1  0  0  0  0
  1 25  1  0  0  0  0
  1 26  1  0  0  0  0
  2 27  1  0  0  0  0
  2 28  1  0  0  0  0
  7 29  1  0  0  0  0
  9 30  1  0  0  0  0
  9 31  1  0  0  0  0
 15 32  1  0  0  0  0
 16 33  1  0  0  0  0
 16 34  1  0  0  0  0
 18 35  1  0  0  0  0
 21 36  1  0  0  0  0
 22 37  1  0  0  0  0
 23 38  1  0  0  0  0
M  END
> <i_m_stars>
0

> <r_user_dG.exp>
-8.872536

$$$$
18626-1
  -OEChem-05192314073D
 Structure written by MMmdl.
 38 39  0     0  0  0  0  0  0999 V2000
   23.9635   12.4497   30.2903 C   0  0  0  0  0  0  0  0  0  0  0  0
   23.2574   11.1110   30.5189 C   0  0  0  0  0  0  0  0  0  0  0  0
   22.1169   11.3548   31.3379 O   0  0  0  0  0  0  0  0  0  0  0  0
   21.3337   10.2929   31.7571 C   0  0  0  0  0  0  0  0  0  0  0  0
   21.7030    9.0460   31.3553 N   0  0  0  0  0  0  0  0  0  0  0  0
   20.9397    8.0077   31.7246 C   0  0  0  0  0  0  0  0  0  0  0  0
   19.8167    8.1342   32.5272 C   0  0  0  0  0  0  0  0  0  0  0  0
   19.4419    9.4023   32.9317 C   0  0  0  0  0  0  0  0  0  0  0  0
   18.2880    9.4650   33.7017 N   0  0  0  0  0  0  0  0  0  0  0  0
   20.2000   10.5200   32.5451 C   0  0  0  0  0  0  0  0  0  0  0  0
   19.8477   11.8875   32.9079 C   0  0  0  0  0  0  0  0  0  0  0  0
   19.5764   12.9770   33.1888 N   0  0  0  0  0  0  0  0  0  0  0  0
   21.4299    6.8386   31.1872 N   0  0  0  0  0  0  0  0  0  0  0  0
   20.8469    5.6461   31.0336 C   0  0  0  0  0  0  0  0  0  0  0  0
   19.7112    5.3701   31.4141 O   0  0  0  0  0  0  0  0  0  0  0  0
   21.6405    4.6099   30.2450 C   0  0  0  0  0  0  0  0  0  0  0  0
   23.0890    4.4692   30.6919 C   0  0  0  0  0  0  0  0  0  0  0  0
   23.4115    3.6311   31.7625 C   0  0  0  0  0  0  0  0  0  0  0  0
   24.7308    3.5231   32.1964 C   0  0  0  0  0  0  0  0  0  0  0  0
   25.1131    2.5196   33.5455 Cl  0  0  0  0  0  0  0  0  0  0  0  0
   25.7377    4.2389   31.5498 C   0  0  0  0  0  0  0  0  0  0  0  0
   25.4251    5.0710   30.4731 C   0  0  0  0  0  0  0  0  0  0  0  0
   24.1019    5.1880   30.0463 C   0  0  0  0  0  0  0  0  0  0  0  0
   24.8509   12.2937   29.6593 H   0  0  0  0  0  0  0  0  0  0  0  0
   23.2753   13.1462   29.7891 H   0  0  0  0  0  0  0  0  0  0  0  0
   24.2716   12.8716   31.2583 H   0  0  0  0  0  0  0  0  0  0  0  0
   22.9419   10.6849   29.5551 H   0  0  0  0  0  0  0  0  0  0  0  0
   23.9382   10.4103   31.0243 H   0  0  0  0  0  0  0  0  0  0  0  0
   22.5225    8.9080   30.7990 H   0  0  0  0  0  0  0  0  0  0  0  0
   19.2497    7.2658   32.8285 H   0  0  0  0  0  0  0  0  0  0  0  0
   18.0555   10.4048   33.9523 H   0  0  0  0  0  0  0  0  0  0  0  0
   22.3732    6.8902   30.8594 H   0  0  0  0  0  0  0  0  0  0  0  0
   21.1463    3.6340   30.3608 H   0  0  0  0  0  0  0  0  0  0  0  0
   21.6323    4.9015   29.1844 H   0  0  0  0  0  0  0  0  0  0  0  0
   22.6350    3.0650   32.2554 H   0  0  0  0  0  0  0  0  0  0  0  0
   26.7613    4.1495   31.8825 H   0  0  0  0  0  0  0  0  0  0  0  0
   26.2061    5.6231   29.9715 H   0  0  0  0  0  0  0  0  0  0  0  0
   23.8586    5.8345   29.2161 H   0  0  0  0  0  0  0  0  0  0  0  0
  1  2  1  0  0  0  0
  2  3  1  0  0  0  0
  3  4  1  0  0  0  0
  4 10  2  0  0  0  0
  4  5  1  0  0  0  0
  5  6  1  0  0  0  0
  6  7  2  0  0  0  0
  6 13  1  0  0  0  0
  7  8  1  0  0  0  0
  8  9  2  0  0  0  0
  8 10  1  0  0  0  0
 10 11  1  0  0  0  0
 11 12  3  0  0  0  0
 13 14  1  0  0  0  0
 14 15  2  0  0  0  0
 14 16  1  0  0  0  0
 16 17  1  0  0  0  0
 17 23  2  0  0  0  0
 17 18  1  0  0  0  0
 18 19  2  0  0  0  0
 19 20  1  0  0  0  0
 19 21  1  0  0  0  0
 21 22  2  0  0  0  0
 22 23  1  0  0  0  0
  1 24  1  0  0  0  0
  1 25  1  0  0  0  0
  1 26  1  0  0  0  0
  2 27  1  0  0  0  0
  2 28  1  0  0  0  0
  5 29  1  0  0  0  0
  7 30  1  0  0  0  0
  9 31  1  0  0  0  0
 13 32  1  0  0  0  0
 16 33  1  0  0  0  0
 16 34  1  0  0  0  0
 18 35  1  0  0  0  0
 21 36  1  0  0  0  0
 22 37  1  0  0  0  0
 23 38  1  0  0  0  0
M  END
> <i_m_stars>
0

> <r_user_dG.exp>
-8.872536

$$$$
18626-1
  -OEChem-05192314073D
 Structure written by MMmdl.
 38 39  0     0  0  0  0  0  0999 V2000
   23.9635   12.4497   30.2903 C   0  0  0  0  0  0  0  0  0  0  0  0
   23.2574   11.1110   30.5189 C   0  0  0  0  0  0  0  0  0  0  0  0
   22.1169   11.3548   31.3379 O   0  0  0  0  0  0  0  0  0  0  0  0
   21.3337   10.2929   31.7571 C   0  0  0  0  0  0  0  0  0  0  0  0
   21.7030    9.0460   31.3553 N   0  0  0  0  0  0  0  0  0  0  0  0
   20.9397    8.0077   31.7246 C   0  0  0  0  0  0  0  0  0  0  0  0
   19.8167    8.1342   32.5272 C   0  0  0  0  0  0  0  0  0  0  0  0
   19.4419    9.4023   32.9317 C   0  0  0  0  0  0  0  0  0  0  0  0
   18.2880    9.4650   33.7017 N   0  0  0  0  0  0  0  0  0  0  0  0
   20.2000   10.5200   32.5451 C   0  0  0  0  0  0  0  0  0  0  0  0
   19.8477   11.8875   32.9079 C   0  0  0  0  0  0  0  0  0  0  0  0
   19.5764   12.9770   33.1888 N   0  0  0  0  0  0  0  0  0  0  0  0
   21.4299    6.8386   31.1872 N   0  0  0  0  0  0  0  0  0  0  0  0
   20.8469    5.6461   31.0336 C   0  0  0  0  0  0  0  0  0  0  0  0
   19.7112    5.3701   31.4141 O   0  0  0  0  0  0  0  0  0  0  0  0
   21.6405    4.6099   30.2450 C   0  0  0  0  0  0  0  0  0  0  0  0
   23.0890    4.4692   30.6919 C   0  0  0  0  0  0  0  0  0  0  0  0
   23.4115    3.6311   31.7625 C   0  0  0  0  0  0  0  0  0  0  0  0
   24.7308    3.5231   32.1964 C   0  0  0  0  0  0  0  0  0  0  0  0
   25.1131    2.5196   33.5455 Cl  0  0  0  0  0  0  0  0  0  0  0  0
   25.7377    4.2389   31.5498 C   0  0  0  0  0  0  0  0  0  0  0  0
   25.4251    5.0710   30.4731 C   0  0  0  0  0  0  0  0  0  0  0  0
   24.1019    5.1880   30.0463 C   0  0  0  0  0  0  0  0  0  0  0  0
   24.8509   12.2937   29.6593 H   0  0  0  0  0  0  0  0  0  0  0  0
   23.2753   13.1462   29.7891 H   0  0  0  0  0  0  0  0  0  0  0  0
   24.2716   12.8716   31.2583 H   0  0  0  0  0  0  0  0  0  0  0  0
   22.9419   10.6849   29.5551 H   0  0  0  0  0  0  0  0  0  0  0  0
   23.9382   10.4103   31.0243 H   0  0  0  0  0  0  0  0  0  0  0  0
   22.5225    8.9080   30.7990 H   0  0  0  0  0  0  0  0  0  0  0  0
   19.2497    7.2658   32.8285 H   0  0  0  0  0  0  0  0  0  0  0  0
   18.0996   10.4168   33.9439 H   0  0  0  0  0  0  0  0  0  0  0  0
   17.5189    9.0954   33.1802 H   0  0  0  0  0  0  0  0  0  0  0  0
   21.1463    3.6340   30.3608 H   0  0  0  0  0  0  0  0  0  0  0  0
   21.6323    4.9015   29.1844 H   0  0  0  0  0  0  0  0  0  0  0  0
   22.6350    3.0650   32.2554 H   0  0  0  0  0  0  0  0  0  0  0  0
   26.7613    4.1495   31.8825 H   0  0  0  0  0  0  0  0  0  0  0  0
   26.2061    5.6231   29.9715 H   0  0  0  0  0  0  0  0  0  0  0  0
   23.8586    5.8345   29.2161 H   0  0  0  0  0  0  0  0  0  0  0  0
  1  2  1  0  0  0  0
  2  3  1  0  0  0  0
  3  4  1  0  0  0  0
  4 10  2  0  0  0  0
  4  5  1  0  0  0  0
  5  6  1  0  0  0  0
  6  7  1  0  0  0  0
  6 13  2  0  0  0  0
  7  8  2  0  0  0  0
  8  9  1  0  0  0  0
  8 10  1  0  0  0  0
 10 11  1  0  0  0  0
 11 12  3  0  0  0  0
 13 14  1  0  0  0  0
 14 15  2  0  0  0  0
 14 16  1  0  0  0  0
 16 17  1  0  0  0  0
 17 23  2  0  0  0  0
 17 18  1  0  0  0  0
 18 19  2  0  0  0  0
 19 20  1  0  0  0  0
 19 21  1  0  0  0  0
 21 22  2  0  0  0  0
 22 23  1  0  0  0  0
  1 24  1  0  0  0  0
  1 25  1  0  0  0  0
  1 26  1  0  0  0  0
  2 27  1  0  0  0  0
  2 28  1  0  0  0  0
  5 29  1  0  0  0  0
  7 30  1  0  0  0  0
  9 31  1  0  0  0  0
  9 32  1  0  0  0  0
 16 33  1  0  0  0  0
 16 34  1  0  0  0  0
 18 35  1  0  0  0  0
 21 36  1  0  0  0  0
 22 37  1  0  0  0  0
 23 38  1  0  0  0  0
M  END
> <i_m_stars>
0

> <r_user_dG.exp>
-8.872536

$$$$
18626-1
  -OEChem-05192314073D
 Structure written by MMmdl.
 38 39  0     0  0  0  0  0  0999 V2000
   23.9635   12.4497   30.2903 C   0  0  0  0  0  0  0  0  0  0  0  0
   23.2574   11.1110   30.5189 C   0  0  0  0  0  0  0  0  0  0  0  0
   22.1169   11.3548   31.3379 O   0  0  0  0  0  0  0  0  0  0  0  0
   21.3337   10.2929   31.7571 C   0  0  0  0  0  0  0  0  0  0  0  0
   21.7030    9.0460   31.3553 N   0  0  0  0  0  0  0  0  0  0  0  0
   20.9397    8.0077   31.7246 C   0  0  0  0  0  0  0  0  0  0  0  0
   19.8167    8.1342   32.5272 C   0  0  0  0  0  0  0  0  0  0  0  0
   19.4419    9.4023   32.9317 C   0  0  0  0  0  0  0  0  0  0  0  0
   18.2880    9.4650   33.7017 N   0  0  0  0  0  0  0  0  0  0  0  0
   20.2000   10.5200   32.5451 C   0  0  0  0  0  0  0  0  0  0  0  0
   19.8477   11.8875   32.9079 C   0  0  0  0  0  0  0  0  0  0  0  0
   19.5764   12.9770   33.1888 N   0  0  0  0  0  0  0  0  0  0  0  0
   21.4299    6.8386   31.1872 N   0  0  0  0  0  0  0  0  0  0  0  0
   20.8469    5.6461   31.0336 C   0  0  0  0  0  0  0  0  0  0  0  0
   19.7112    5.3701   31.4141 O   0  0  0  0  0  0  0  0  0  0  0  0
   21.6405    4.6099   30.2450 C   0  0  0  0  0  0  0  0  0  0  0  0
   23.0890    4.4692   30.6919 C   0  0  0  0  0  0  0  0  0  0  0  0
   23.4115    3.6311   31.7625 C   0  0  0  0  0  0  0  0  0  0  0  0
   24.7308    3.5231   32.1964 C   0  0  0  0  0  0  0  0  0  0  0  0
   25.1131    2.5196   33.5455 Cl  0  0  0  0  0  0  0  0  0  0  0  0
   25.7377    4.2389   31.5498 C   0  0  0  0  0  0  0  0  0  0  0  0
   25.4251    5.0710   30.4731 C   0  0  0  0  0  0  0  0  0  0  0  0
   24.1019    5.1880   30.0463 C   0  0  0  0  0  0  0  0  0  0  0  0
   24.8509   12.2937   29.6593 H   0  0  0  0  0  0  0  0  0  0  0  0
   23.2753   13.1462   29.7891 H   0  0  0  0  0  0  0  0  0  0  0  0
   24.2716   12.8716   31.2583 H   0  0  0  0  0  0  0  0  0  0  0  0
   22.9419   10.6849   29.5551 H   0  0  0  0  0  0  0  0  0  0  0  0
   23.9382   10.4103   31.0243 H   0  0  0  0  0  0  0  0  0  0  0  0
   22.5225    8.9080   30.7990 H   0  0  0  0  0  0  0  0  0  0  0  0
   19.2497    7.2658   32.8285 H   0  0  0  0  0  0  0  0  0  0  0  0
   18.0555   10.4048   33.9523 H   0  0  0  0  0  0  0  0  0  0  0  0
   19.5144    4.4667   31.1959 H   0  0  0  0  0  0  0  0  0  0  0  0
   21.1463    3.6340   30.3608 H   0  0  0  0  0  0  0  0  0  0  0  0
   21.6323    4.9015   29.1844 H   0  0  0  0  0  0  0  0  0  0  0  0
   22.6350    3.0650   32.2554 H   0  0  0  0  0  0  0  0  0  0  0  0
   26.7613    4.1495   31.8825 H   0  0  0  0  0  0  0  0  0  0  0  0
   26.2061    5.6231   29.9715 H   0  0  0  0  0  0  0  0  0  0  0  0
   23.8586    5.8345   29.2161 H   0  0  0  0  0  0  0  0  0  0  0  0
  1  2  1  0  0  0  0
  2  3  1  0  0  0  0
  3  4  1  0  0  0  0
  4 10  2  0  0  0  0
  4  5  1  0  0  0  0
  5  6  1  0  0  0  0
  6  7  2  0  0  0  0
  6 13  1  0  0  0  0
  7  8  1  0  0  0  0
  8  9  2  0  0  0  0
  8 10  1  0  0  0  0
 10 11  1  0  0  0  0
 11 12  3  0  0  0  0
 13 14  2  0  0  0  0
 14 15  1  0  0  0  0
 14 16  1  0  0  0  0
 16 17  1  0  0  0  0
 17 23  2  0  0  0  0
 17 18  1  0  0  0  0
 18 19  2  0  0  0  0
 19 20  1  0  0  0  0
 19 21  1  0  0  0  0
 21 22  2  0  0  0  0
 22 23  1  0  0  0  0
  1 24  1  0  0  0  0
  1 25  1  0  0  0  0
  1 26  1  0  0  0  0
  2 27  1  0  0  0  0
  2 28  1  0  0  0  0
  5 29  1  0  0  0  0
  7 30  1  0  0  0  0
  9 31  1  0  0  0  0
 15 32  1  0  0  0  0
 16 33  1  0  0  0  0
 16 34  1  0  0  0  0
 18 35  1  0  0  0  0
 21 36  1  0  0  0  0
 22 37  1  0  0  0  0
 23 38  1  0  0  0  0
M  END
> <i_m_stars>
0

> <r_user_dG.exp>
-8.872536

$$$$
18626-1
  -OEChem-05192314073D
 Structure written by MMmdl.
 38 39  0     1  0  0  0  0  0999 V2000
   23.9635   12.4497   30.2903 C   0  0  0  0  0  0  0  0  0  0  0  0
   23.2574   11.1110   30.5189 C   0  0  0  0  0  0  0  0  0  0  0  0
   22.1169   11.3548   31.3379 O   0  0  0  0  0  0  0  0  0  0  0  0
   21.3337   10.2929   31.7571 C   0  0  0  0  0  0  0  0  0  0  0  0
   21.7030    9.0460   31.3553 N   0  0  0  0  0  0  0  0  0  0  0  0
   20.9397    8.0077   31.7246 C   0  0  0  0  0  0  0  0  0  0  0  0
   19.8167    8.1342   32.5272 C   0  0  0  0  0  0  0  0  0  0  0  0
   19.4419    9.4023   32.9317 C   0  0  0  0  0  0  0  0  0  0  0  0
   18.2880    9.4650   33.7017 N   0  0  0  0  0  0  0  0  0  0  0  0
   20.2000   10.5200   32.5451 C   0  0  3  0  0  0  0  0  0  0  0  0
   19.8477   11.8875   32.9079 C   0  0  0  0  0  0  0  0  0  0  0  0
   19.5764   12.9770   33.1888 N   0  0  0  0  0  0  0  0  0  0  0  0
   21.4299    6.8386   31.1872 N   0  0  0  0  0  0  0  0  0  0  0  0
   20.8469    5.6461   31.0336 C   0  0  0  0  0  0  0  0  0  0  0  0
   19.7112    5.3701   31.4141 O   0  0  0  0  0  0  0  0  0  0  0  0
   21.6405    4.6099   30.2450 C   0  0  0  0  0  0  0  0  0  0  0  0
   23.0890    4.4692   30.6919 C   0  0  0  0  0  0  0  0  0  0  0  0
   23.4115    3.6311   31.7625 C   0  0  0  0  0  0  0  0  0  0  0  0
   24.7308    3.5231   32.1964 C   0  0  0  0  0  0  0  0  0  0  0  0
   25.1131    2.5196   33.5455 Cl  0  0  0  0  0  0  0  0  0  0  0  0
   25.7377    4.2389   31.5498 C   0  0  0  0  0  0  0  0  0  0  0  0
   25.4251    5.0710   30.4731 C   0  0  0  0  0  0  0  0  0  0  0  0
   24.1019    5.1880   30.0463 C   0  0  0  0  0  0  0  0  0  0  0  0
   24.8509   12.2937   29.6593 H   0  0  0  0  0  0  0  0  0  0  0  0
   23.2753   13.1462   29.7891 H   0  0  0  0  0  0  0  0  0  0  0  0
   24.2716   12.8716   31.2583 H   0  0  0  0  0  0  0  0  0  0  0  0
   22.9419   10.6849   29.5551 H   0  0  0  0  0  0  0  0  0  0  0  0
   23.9382   10.4103   31.0243 H   0  0  0  0  0  0  0  0  0  0  0  0
   18.9693    7.7051   31.9724 H   0  0  0  0  0  0  0  0  0  0  0  0
   19.9973    7.5419   33.4364 H   0  0  0  0  0  0  0  0  0  0  0  0
   18.0555   10.4048   33.9523 H   0  0  0  0  0  0  0  0  0  0  0  0
   20.8088   10.4293   33.4568 H   0  0  0  0  0  0  0  0  0  0  0  0
   21.1463    3.6340   30.3608 H   0  0  0  0  0  0  0  0  0  0  0  0
   21.6323    4.9015   29.1844 H   0  0  0  0  0  0  0  0  0  0  0  0
   22.6350    3.0650   32.2554 H   0  0  0  0  0  0  0  0  0  0  0  0
   26.7613    4.1495   31.8825 H   0  0  0  0  0  0  0  0  0  0  0  0
   26.2061    5.6231   29.9715 H   0  0  0  0  0  0  0  0  0  0  0  0
   23.8586    5.8345   29.2161 H   0  0  0  0  0  0  0  0  0  0  0  0
  1  2  1  0  0  0  0
  2  3  1  0  0  0  0
  3  4  1  0  0  0  0
  4 10  1  0  0  0  0
  4  5  2  0  0  0  0
  5  6  1  0  0  0  0
  6  7  1  0  0  0  0
  6 13  2  0  0  0  0
  7  8  1  0  0  0  0
  8  9  2  0  0  0  0
  8 10  1  0  0  0  0
 10 11  1  0  0  0  0
 11 12  3  0  0  0  0
 13 14  1  0  0  0  0
 14 15  2  0  0  0  0
 14 16  1  0  0  0  0
 16 17  1  0  0  0  0
 17 23  2  0  0  0  0
 17 18  1  0  0  0  0
 18 19  2  0  0  0  0
 19 20  1  0  0  0  0
 19 21  1  0  0  0  0
 21 22  2  0  0  0  0
 22 23  1  0  0  0  0
  1 24  1  0  0  0  0
  1 25  1  0  0  0  0
  1 26  1  0  0  0  0
  2 27  1  0  0  0  0
  2 28  1  0  0  0  0
  7 29  1  0  0  0  0
  7 30  1  0  0  0  0
  9 31  1  0  0  0  0
 10 32  1  0  0  0  0
 16 33  1  0  0  0  0
 16 34  1  0  0  0  0
 18 35  1  0  0  0  0
 21 36  1  0  0  0  0
 22 37  1  0  0  0  0
 23 38  1  0  0  0  0
M  END
> <i_m_stars>
0

> <r_user_dG.exp>
-8.872536

$$$$
18626-1
  -OEChem-05192314073D
 Structure written by MMmdl.
 38 39  0     1  0  0  0  0  0999 V2000
   23.9635   12.4497   30.2903 C   0  0  0  0  0  0  0  0  0  0  0  0
   23.2574   11.1110   30.5189 C   0  0  0  0  0  0  0  0  0  0  0  0
   22.1169   11.3548   31.3379 O   0  0  0  0  0  0  0  0  0  0  0  0
   21.3337   10.2929   31.7571 C   0  0  0  0  0  0  0  0  0  0  0  0
   21.7030    9.0460   31.3553 N   0  0  0  0  0  0  0  0  0  0  0  0
   20.9397    8.0077   31.7246 C   0  0  0  0  0  0  0  0  0  0  0  0
   19.8167    8.1342   32.5272 C   0  0  0  0  0  0  0  0  0  0  0  0
   19.4419    9.4023   32.9317 C   0  0  0  0  0  0  0  0  0  0  0  0
   18.2880    9.4650   33.7017 N   0  0  0  0  0  0  0  0  0  0  0  0
   20.2000   10.5200   32.5451 C   0  0  3  0  0  0  0  0  0  0  0  0
   19.8477   11.8875   32.9079 C   0  0  0  0  0  0  0  0  0  0  0  0
   19.5764   12.9770   33.1888 N   0  0  0  0  0  0  0  0  0  0  0  0
   21.4299    6.8386   31.1872 N   0  0  0  0  0  0  0  0  0  0  0  0
   20.8469    5.6461   31.0336 C   0  0  0  0  0  0  0  0  0  0  0  0
   19.7112    5.3701   31.4141 O   0  0  0  0  0  0  0  0  0  0  0  0
   21.6405    4.6099   30.2450 C   0  0  0  0  0  0  0  0  0  0  0  0
   23.0890    4.4692   30.6919 C   0  0  0  0  0  0  0  0  0  0  0  0
   23.4115    3.6311   31.7625 C   0  0  0  0  0  0  0  0  0  0  0  0
   24.7308    3.5231   32.1964 C   0  0  0  0  0  0  0  0  0  0  0  0
   25.1131    2.5196   33.5455 Cl  0  0  0  0  0  0  0  0  0  0  0  0
   25.7377    4.2389   31.5498 C   0  0  0  0  0  0  0  0  0  0  0  0
   25.4251    5.0710   30.4731 C   0  0  0  0  0  0  0  0  0  0  0  0
   24.1019    5.1880   30.0463 C   0  0  0  0  0  0  0  0  0  0  0  0
   24.8509   12.2937   29.6593 H   0  0  0  0  0  0  0  0  0  0  0  0
   23.2753   13.1462   29.7891 H   0  0  0  0  0  0  0  0  0  0  0  0
   24.2716   12.8716   31.2583 H   0  0  0  0  0  0  0  0  0  0  0  0
   22.9419   10.6849   29.5551 H   0  0  0  0  0  0  0  0  0  0  0  0
   23.9382   10.4103   31.0243 H   0  0  0  0  0  0  0  0  0  0  0  0
   19.2497    7.2658   32.8285 H   0  0  0  0  0  0  0  0  0  0  0  0
   18.0555   10.4048   33.9523 H   0  0  0  0  0  0  0  0  0  0  0  0
   20.8088   10.4293   33.4568 H   0  0  0  0  0  0  0  0  0  0  0  0
   22.3732    6.8902   30.8594 H   0  0  0  0  0  0  0  0  0  0  0  0
   21.1463    3.6340   30.3608 H   0  0  0  0  0  0  0  0  0  0  0  0
   21.6323    4.9015   29.1844 H   0  0  0  0  0  0  0  0  0  0  0  0
   22.6350    3.0650   32.2554 H   0  0  0  0  0  0  0  0  0  0  0  0
   26.7613    4.1495   31.8825 H   0  0  0  0  0  0  0  0  0  0  0  0
   26.2061    5.6231   29.9715 H   0  0  0  0  0  0  0  0  0  0  0  0
   23.8586    5.8345   29.2161 H   0  0  0  0  0  0  0  0  0  0  0  0
  1  2  1  0  0  0  0
  2  3  1  0  0  0  0
  3  4  1  0  0  0  0
  4 10  1  0  0  0  0
  4  5  2  0  0  0  0
  5  6  1  0  0  0  0
  6  7  2  0  0  0  0
  6 13  1  0  0  0  0
  7  8  1  0  0  0  0
  8  9  2  0  0  0  0
  8 10  1  0  0  0  0
 10 11  1  0  0  0  0
 11 12  3  0  0  0  0
 13 14  1  0  0  0  0
 14 15  2  0  0  0  0
 14 16  1  0  0  0  0
 16 17  1  0  0  0  0
 17 23  2  0  0  0  0
 17 18  1  0  0  0  0
 18 19  2  0  0  0  0
 19 20  1  0  0  0  0
 19 21  1  0  0  0  0
 21 22  2  0  0  0  0
 22 23  1  0  0  0  0
  1 24  1  0  0  0  0
  1 25  1  0  0  0  0
  1 26  1  0  0  0  0
  2 27  1  0  0  0  0
  2 28  1  0  0  0  0
  7 29  1  0  0  0  0
  9 30  1  0  0  0  0
 10 31  1  0  0  0  0
 13 32  1  0  0  0  0
 16 33  1  0  0  0  0
 16 34  1  0  0  0  0
 18 35  1  0  0  0  0
 21 36  1  0  0  0  0
 22 37  1  0  0  0  0
 23 38  1  0  0  0  0
M  END
> <i_m_stars>
0

> <r_user_dG.exp>
-8.872536

$$$$
18626-1
  -OEChem-05192314073D
 Structure written by MMmdl.
 38 39  0     0  0  0  0  0  0999 V2000
   23.9635   12.4497   30.2903 C   0  0  0  0  0  0  0  0  0  0  0  0
   23.2574   11.1110   30.5189 C   0  0  0  0  0  0  0  0  0  0  0  0
   22.1169   11.3548   31.3379 O   0  0  0  0  0  0  0  0  0  0  0  0
   21.3337   10.2929   31.7571 C   0  0  0  0  0  0  0  0  0  0  0  0
   21.7030    9.0460   31.3553 N   0  0  0  0  0  0  0  0  0  0  0  0
   20.9397    8.0077   31.7246 C   0  0  0  0  0  0  0  0  0  0  0  0
   19.8167    8.1342   32.5272 C   0  0  0  0  0  0  0  0  0  0  0  0
   19.4419    9.4023   32.9317 C   0  0  0  0  0  0  0  0  0  0  0  0
   18.2880    9.4650   33.7017 N   0  0  0  0  0  0  0  0  0  0  0  0
   20.2000   10.5200   32.5451 C   0  0  0  0  0  0  0  0  0  0  0  0
   19.8477   11.8875   32.9079 C   0  0  0  0  0  0  0  0  0  0  0  0
   19.5764   12.9770   33.1888 N   0  0  0  0  0  0  0  0  0  0  0  0
   21.4299    6.8386   31.1872 N   0  0  0  0  0  0  0  0  0  0  0  0
   20.8469    5.6461   31.0336 C   0  0  0  0  0  0  0  0  0  0  0  0
   19.7112    5.3701   31.4141 O   0  0  0  0  0  0  0  0  0  0  0  0
   21.6405    4.6099   30.2450 C   0  0  0  0  0  0  0  0  0  0  0  0
   23.0890    4.4692   30.6919 C   0  0  0  0  0  0  0  0  0  0  0  0
   23.4115    3.6311   31.7625 C   0  0  0  0  0  0  0  0  0  0  0  0
   24.7308    3.5231   32.1964 C   0  0  0  0  0  0  0  0  0  0  0  0
   25.1131    2.5196   33.5455 Cl  0  0  0  0  0  0  0  0  0  0  0  0
   25.7377    4.2389   31.5498 C   0  0  0  0  0  0  0  0  0  0  0  0
   25.4251    5.0710   30.4731 C   0  0  0  0  0  0  0  0  0  0  0  0
   24.1019    5.1880   30.0463 C   0  0  0  0  0  0  0  0  0  0  0  0
   24.8509   12.2937   29.6593 H   0  0  0  0  0  0  0  0  0  0  0  0
   23.2753   13.1462   29.7891 H   0  0  0  0  0  0  0  0  0  0  0  0
   24.2716   12.8716   31.2583 H   0  0  0  0  0  0  0  0  0  0  0  0
   22.9419   10.6849   29.5551 H   0  0  0  0  0  0  0  0  0  0  0  0
   23.9382   10.4103   31.0243 H   0  0  0  0  0  0  0  0  0  0  0  0
   18.9693    7.7051   31.9724 H   0  0  0  0  0  0  0  0  0  0  0  0
   19.9973    7.5419   33.4364 H   0  0  0  0  0  0  0  0  0  0  0  0
   18.0555   10.4048   33.9523 H   0  0  0  0  0  0  0  0  0  0  0  0
   22.3732    6.8902   30.8594 H   0  0  0  0  0  0  0  0  0  0  0  0
   21.1463    3.6340   30.3608 H   0  0  0  0  0  0  0  0  0  0  0  0
   21.6323    4.9015   29.1844 H   0  0  0  0  0  0  0  0  0  0  0  0
   22.6350    3.0650   32.2554 H   0  0  0  0  0  0  0  0  0  0  0  0
   26.7613    4.1495   31.8825 H   0  0  0  0  0  0  0  0  0  0  0  0
   26.2061    5.6231   29.9715 H   0  0  0  0  0  0  0  0  0  0  0  0
   23.8586    5.8345   29.2161 H   0  0  0  0  0  0  0  0  0  0  0  0
  1  2  1  0  0  0  0
  2  3  1  0  0  0  0
  3  4  1  0  0  0  0
  4 10  2  0  0  0  0
  4  5  1  0  0  0  0
  5  6  2  0  0  0  0
  6  7  1  0  0  0  0
  6 13  1  0  0  0  0
  7  8  1  0  0  0  0
  8  9  2  0  0  0  0
  8 10  1  0  0  0  0
 10 11  1  0  0  0  0
 11 12  3  0  0  0  0
 13 14  1  0  0  0  0
 14 15  2  0  0  0  0
 14 16  1  0  0  0  0
 16 17  1  0  0  0  0
 17 23  2  0  0  0  0
 17 18  1  0  0  0  0
 18 19  2  0  0  0  0
 19 20  1  0  0  0  0
 19 21  1  0  0  0  0
 21 22  2  0  0  0  0
 22 23  1  0  0  0  0
  1 24  1  0  0  0  0
  1 25  1  0  0  0  0
  1 26  1  0  0  0  0
  2 27  1  0  0  0  0
  2 28  1  0  0  0  0
  7 29  1  0  0  0  0
  7 30  1  0  0  0  0
  9 31  1  0  0  0  0
 13 32  1  0  0  0  0
 16 33  1  0  0  0  0
 16 34  1  0  0  0  0
 18 35  1  0  0  0  0
 21 36  1  0  0  0  0
 22 37  1  0  0  0  0
 23 38  1  0  0  0  0
M  END
> <i_m_stars>
0

> <r_user_dG.exp>
-8.872536

$$$$
18626-1
  -OEChem-05192314073D
 Structure written by MMmdl.
 38 39  0     1  0  0  0  0  0999 V2000
   23.9635   12.4497   30.2903 C   0  0  0  0  0  0  0  0  0  0  0  0
   23.2574   11.1110   30.5189 C   0  0  0  0  0  0  0  0  0  0  0  0
   22.1169   11.3548   31.3379 O   0  0  0  0  0  0  0  0  0  0  0  0
   21.3337   10.2929   31.7571 C   0  0  0  0  0  0  0  0  0  0  0  0
   21.7030    9.0460   31.3553 N   0  0  0  0  0  0  0  0  0  0  0  0
   20.9397    8.0077   31.7246 C   0  0  0  0  0  0  0  0  0  0  0  0
   19.8167    8.1342   32.5272 C   0  0  0  0  0  0  0  0  0  0  0  0
   19.4419    9.4023   32.9317 C   0  0  0  0  0  0  0  0  0  0  0  0
   18.2880    9.4650   33.7017 N   0  0  0  0  0  0  0  0  0  0  0  0
   20.2000   10.5200   32.5451 C   0  0  3  0  0  0  0  0  0  0  0  0
   19.8477   11.8875   32.9079 C   0  0  0  0  0  0  0  0  0  0  0  0
   19.5764   12.9770   33.1888 N   0  0  0  0  0  0  0  0  0  0  0  0
   21.4299    6.8386   31.1872 N   0  0  0  0  0  0  0  0  0  0  0  0
   20.8469    5.6461   31.0336 C   0  0  0  0  0  0  0  0  0  0  0  0
   19.7112    5.3701   31.4141 O   0  0  0  0  0  0  0  0  0  0  0  0
   21.6405    4.6099   30.2450 C   0  0  0  0  0  0  0  0  0  0  0  0
   23.0890    4.4692   30.6919 C   0  0  0  0  0  0  0  0  0  0  0  0
   23.4115    3.6311   31.7625 C   0  0  0  0  0  0  0  0  0  0  0  0
   24.7308    3.5231   32.1964 C   0  0  0  0  0  0  0  0  0  0  0  0
   25.1131    2.5196   33.5455 Cl  0  0  0  0  0  0  0  0  0  0  0  0
   25.7377    4.2389   31.5498 C   0  0  0  0  0  0  0  0  0  0  0  0
   25.4251    5.0710   30.4731 C   0  0  0  0  0  0  0  0  0  0  0  0
   24.1019    5.1880   30.0463 C   0  0  0  0  0  0  0  0  0  0  0  0
   24.8509   12.2937   29.6593 H   0  0  0  0  0  0  0  0  0  0  0  0
   23.2753   13.1462   29.7891 H   0  0  0  0  0  0  0  0  0  0  0  0
   24.2716   12.8716   31.2583 H   0  0  0  0  0  0  0  0  0  0  0  0
   22.9419   10.6849   29.5551 H   0  0  0  0  0  0  0  0  0  0  0  0
   23.9382   10.4103   31.0243 H   0  0  0  0  0  0  0  0  0  0  0  0
   19.2497    7.2658   32.8285 H   0  0  0  0  0  0  0  0  0  0  0  0
   18.0996   10.4168   33.9439 H   0  0  0  0  0  0  0  0  0  0  0  0
   17.5189    9.0954   33.1802 H   0  0  0  0  0  0  0  0  0  0  0  0
   20.8088   10.4293   33.4568 H   0  0  0  0  0  0  0  0  0  0  0  0
   21.1463    3.6340   30.3608 H   0  0  0  0  0  0  0  0  0  0  0  0
   21.6323    4.9015   29.1844 H   0  0  0  0  0  0  0  0  0  0  0  0
   22.6350    3.0650   32.2554 H   0  0  0  0  0  0  0  0  0  0  0  0
   26.7613    4.1495   31.8825 H   0  0  0  0  0  0  0  0  0  0  0  0
   26.2061    5.6231   29.9715 H   0  0  0  0  0  0  0  0  0  0  0  0
   23.8586    5.8345   29.2161 H   0  0  0  0  0  0  0  0  0  0  0  0
  1  2  1  0  0  0  0
  2  3  1  0  0  0  0
  3  4  1  0  0  0  0
  4 10  1  0  0  0  0
  4  5  2  0  0  0  0
  5  6  1  0  0  0  0
  6  7  1  0  0  0  0
  6 13  2  0  0  0  0
  7  8  2  0  0  0  0
  8  9  1  0  0  0  0
  8 10  1  0  0  0  0
 10 11  1  0  0  0  0
 11 12  3  0  0  0  0
 13 14  1  0  0  0  0
 14 15  2  0  0  0  0
 14 16  1  0  0  0  0
 16 17  1  0  0  0  0
 17 23  2  0  0  0  0
 17 18  1  0  0  0  0
 18 19  2  0  0  0  0
 19 20  1  0  0  0  0
 19 21  1  0  0  0  0
 21 22  2  0  0  0  0
 22 23  1  0  0  0  0
  1 24  1  0  0  0  0
  1 25  1  0  0  0  0
  1 26  1  0  0  0  0
  2 27  1  0  0  0  0
  2 28  1  0  0  0  0
  7 29  1  0  0  0  0
  9 30  1  0  0  0  0
  9 31  1  0  0  0  0
 10 32  1  0  0  0  0
 16 33  1  0  0  0  0
 16 34  1  0  0  0  0
 18 35  1  0  0  0  0
 21 36  1  0  0  0  0
 22 37  1  0  0  0  0
 23 38  1  0  0  0  0
M  END
> <i_m_stars>
0

> <r_user_dG.exp>
-8.872536

$$$$
18626-1
  -OEChem-05192314073D
 Structure written by MMmdl.
 38 39  0     0  0  0  0  0  0999 V2000
   23.9635   12.4497   30.2903 C   0  0  0  0  0  0  0  0  0  0  0  0
   23.2574   11.1110   30.5189 C   0  0  0  0  0  0  0  0  0  0  0  0
   22.1169   11.3548   31.3379 O   0  0  0  0  0  0  0  0  0  0  0  0
   21.3337   10.2929   31.7571 C   0  0  0  0  0  0  0  0  0  0  0  0
   21.7030    9.0460   31.3553 N   0  0  0  0  0  0  0  0  0  0  0  0
   20.9397    8.0077   31.7246 C   0  0  0  0  0  0  0  0  0  0  0  0
   19.8167    8.1342   32.5272 C   0  0  0  0  0  0  0  0  0  0  0  0
   19.4419    9.4023   32.9317 C   0  0  0  0  0  0  0  0  0  0  0  0
   18.2880    9.4650   33.7017 N   0  0  0  0  0  0  0  0  0  0  0  0
   20.2000   10.5200   32.5451 C   0  0  0  0  0  0  0  0  0  0  0  0
   19.8477   11.8875   32.9079 C   0  0  0  0  0  0  0  0  0  0  0  0
   19.5764   12.9770   33.1888 N   0  0  0  0  0  0  0  0  0  0  0  0
   21.4299    6.8386   31.1872 N   0  0  0  0  0  0  0  0  0  0  0  0
   20.8469    5.6461   31.0336 C   0  0  0  0  0  0  0  0  0  0  0  0
   19.7112    5.3701   31.4141 O   0  0  0  0  0  0  0  0  0  0  0  0
   21.6405    4.6099   30.2450 C   0  0  0  0  0  0  0  0  0  0  0  0
   23.0890    4.4692   30.6919 C   0  0  0  0  0  0  0  0  0  0  0  0
   23.4115    3.6311   31.7625 C   0  0  0  0  0  0  0  0  0  0  0  0
   24.7308    3.5231   32.1964 C   0  0  0  0  0  0  0  0  0  0  0  0
   25.1131    2.5196   33.5455 Cl  0  0  0  0  0  0  0  0  0  0  0  0
   25.7377    4.2389   31.5498 C   0  0  0  0  0  0  0  0  0  0  0  0
   25.4251    5.0710   30.4731 C   0  0  0  0  0  0  0  0  0  0  0  0
   24.1019    5.1880   30.0463 C   0  0  0  0  0  0  0  0  0  0  0  0
   24.8509   12.2937   29.6593 H   0  0  0  0  0  0  0  0  0  0  0  0
   23.2753   13.1462   29.7891 H   0  0  0  0  0  0  0  0  0  0  0  0
   24.2716   12.8716   31.2583 H   0  0  0  0  0  0  0  0  0  0  0  0
   22.9419   10.6849   29.5551 H   0  0  0  0  0  0  0  0  0  0  0  0
   23.9382   10.4103   31.0243 H   0  0  0  0  0  0  0  0  0  0  0  0
   18.9693    7.7051   31.9724 H   0  0  0  0  0  0  0  0  0  0  0  0
   19.9973    7.5419   33.4364 H   0  0  0  0  0  0  0  0  0  0  0  0
   18.0996   10.4168   33.9439 H   0  0  0  0  0  0  0  0  0  0  0  0
   17.5189    9.0954   33.1802 H   0  0  0  0  0  0  0  0  0  0  0  0
   21.1463    3.6340   30.3608 H   0  0  0  0  0  0  0  0  0  0  0  0
   21.6323    4.9015   29.1844 H   0  0  0  0  0  0  0  0  0  0  0  0
   22.6350    3.0650   32.2554 H   0  0  0  0  0  0  0  0  0  0  0  0
   26.7613    4.1495   31.8825 H   0  0  0  0  0  0  0  0  0  0  0  0
   26.2061    5.6231   29.9715 H   0  0  0  0  0  0  0  0  0  0  0  0
   23.8586    5.8345   29.2161 H   0  0  0  0  0  0  0  0  0  0  0  0
  1  2  1  0  0  0  0
  2  3  1  0  0  0  0
  3  4  1  0  0  0  0
  4 10  1  0  0  0  0
  4  5  2  0  0  0  0
  5  6  1  0  0  0  0
  6  7  1  0  0  0  0
  6 13  2  0  0  0  0
  7  8  1  0  0  0  0
  8  9  1  0  0  0  0
  8 10  2  0  0  0  0
 10 11  1  0  0  0  0
 11 12  3  0  0  0  0
 13 14  1  0  0  0  0
 14 15  2  0  0  0  0
 14 16  1  0  0  0  0
 16 17  1  0  0  0  0
 17 23  2  0  0  0  0
 17 18  1  0  0  0  0
 18 19  2  0  0  0  0
 19 20  1  0  0  0  0
 19 21  1  0  0  0  0
 21 22  2  0  0  0  0
 22 23  1  0  0  0  0
  1 24  1  0  0  0  0
  1 25  1  0  0  0  0
  1 26  1  0  0  0  0
  2 27  1  0  0  0  0
  2 28  1  0  0  0  0
  7 29  1  0  0  0  0
  7 30  1  0  0  0  0
  9 31  1  0  0  0  0
  9 32  1  0  0  0  0
 16 33  1  0  0  0  0
 16 34  1  0  0  0  0
 18 35  1  0  0  0  0
 21 36  1  0  0  0  0
 22 37  1  0  0  0  0
 23 38  1  0  0  0  0
M  END
> <i_m_stars>
0

> <r_user_dG.exp>
-8.872536

$$$$
18626-1
  -OEChem-05192314073D
 Structure written by MMmdl.
 38 39  0     0  0  0  0  0  0999 V2000
   23.9635   12.4497   30.2903 C   0  0  0  0  0  0  0  0  0  0  0  0
   23.2574   11.1110   30.5189 C   0  0  0  0  0  0  0  0  0  0  0  0
   22.1169   11.3548   31.3379 O   0  0  0  0  0  0  0  0  0  0  0  0
   21.3337   10.2929   31.7571 C   0  0  0  0  0  0  0  0  0  0  0  0
   21.7030    9.0460   31.3553 N   0  0  0  0  0  0  0  0  0  0  0  0
   20.9397    8.0077   31.7246 C   0  0  0  0  0  0  0  0  0  0  0  0
   19.8167    8.1342   32.5272 C   0  0  0  0  0  0  0  0  0  0  0  0
   19.4419    9.4023   32.9317 C   0  0  0  0  0  0  0  0  0  0  0  0
   18.2880    9.4650   33.7017 N   0  0  0  0  0  0  0  0  0  0  0  0
   20.2000   10.5200   32.5451 C   0  0  0  0  0  0  0  0  0  0  0  0
   19.8477   11.8875   32.9079 C   0  0  0  0  0  0  0  0  0  0  0  0
   19.5764   12.9770   33.1888 N   0  0  0  0  0  0  0  0  0  0  0  0
   21.4299    6.8386   31.1872 N   0  0  0  0  0  0  0  0  0  0  0  0
   20.8469    5.6461   31.0336 C   0  0  0  0  0  0  0  0  0  0  0  0
   19.7112    5.3701   31.4141 O   0  0  0  0  0  0  0  0  0  0  0  0
   21.6405    4.6099   30.2450 C   0  0  0  0  0  0  0  0  0  0  0  0
   23.0890    4.4692   30.6919 C   0  0  0  0  0  0  0  0  0  0  0  0
   23.4115    3.6311   31.7625 C   0  0  0  0  0  0  0  0  0  0  0  0
   24.7308    3.5231   32.1964 C   0  0  0  0  0  0  0  0  0  0  0  0
   25.1131    2.5196   33.5455 Cl  0  0  0  0  0  0  0  0  0  0  0  0
   25.7377    4.2389   31.5498 C   0  0  0  0  0  0  0  0  0  0  0  0
   25.4251    5.0710   30.4731 C   0  0  0  0  0  0  0  0  0  0  0  0
   24.1019    5.1880   30.0463 C   0  0  0  0  0  0  0  0  0  0  0  0
   24.8509   12.2937   29.6593 H   0  0  0  0  0  0  0  0  0  0  0  0
   23.2753   13.1462   29.7891 H   0  0  0  0  0  0  0  0  0  0  0  0
   24.2716   12.8716   31.2583 H   0  0  0  0  0  0  0  0  0  0  0  0
   22.9419   10.6849   29.5551 H   0  0  0  0  0  0  0  0  0  0  0  0
   23.9382   10.4103   31.0243 H   0  0  0  0  0  0  0  0  0  0  0  0
   22.5225    8.9080   30.7990 H   0  0  0  0  0  0  0  0  0  0  0  0
   18.9693    7.7051   31.9724 H   0  0  0  0  0  0  0  0  0  0  0  0
   19.9973    7.5419   33.4364 H   0  0  0  0  0  0  0  0  0  0  0  0
   18.0555   10.4048   33.9523 H   0  0  0  0  0  0  0  0  0  0  0  0
   21.1463    3.6340   30.3608 H   0  0  0  0  0  0  0  0  0  0  0  0
   21.6323    4.9015   29.1844 H   0  0  0  0  0  0  0  0  0  0  0  0
   22.6350    3.0650   32.2554 H   0  0  0  0  0  0  0  0  0  0  0  0
   26.7613    4.1495   31.8825 H   0  0  0  0  0  0  0  0  0  0  0  0
   26.2061    5.6231   29.9715 H   0  0  0  0  0  0  0  0  0  0  0  0
   23.8586    5.8345   29.2161 H   0  0  0  0  0  0  0  0  0  0  0  0
  1  2  1  0  0  0  0
  2  3  1  0  0  0  0
  3  4  1  0  0  0  0
  4 10  2  0  0  0  0
  4  5  1  0  0  0  0
  5  6  1  0  0  0  0
  6  7  1  0  0  0  0
  6 13  2  0  0  0  0
  7  8  1  0  0  0  0
  8  9  2  0  0  0  0
  8 10  1  0  0  0  0
 10 11  1  0  0  0  0
 11 12  3  0  0  0  0
 13 14  1  0  0  0  0
 14 15  2  0  0  0  0
 14 16  1  0  0  0  0
 16 17  1  0  0  0  0
 17 23  2  0  0  0  0
 17 18  1  0  0  0  0
 18 19  2  0  0  0  0
 19 20  1  0  0  0  0
 19 21  1  0  0  0  0
 21 22  2  0  0  0  0
 22 23  1  0  0  0  0
  1 24  1  0  0  0  0
  1 25  1  0  0  0  0
  1 26  1  0  0  0  0
  2 27  1  0  0  0  0
  2 28  1  0  0  0  0
  5 29  1  0  0  0  0
  7 30  1  0  0  0  0
  7 31  1  0  0  0  0
  9 32  1  0  0  0  0
 16 33  1  0  0  0  0
 16 34  1  0  0  0  0
 18 35  1  0  0  0  0
 21 36  1  0  0  0  0
 22 37  1  0  0  0  0
 23 38  1  0  0  0  0
M  END
> <i_m_stars>
0

> <r_user_dG.exp>
-8.872536

$$$$
18626-1
  -OEChem-05192314073D
 Structure written by MMmdl.
 38 39  0     1  0  0  0  0  0999 V2000
   23.9635   12.4497   30.2903 C   0  0  0  0  0  0  0  0  0  0  0  0
   23.2574   11.1110   30.5189 C   0  0  0  0  0  0  0  0  0  0  0  0
   22.1169   11.3548   31.3379 O   0  0  0  0  0  0  0  0  0  0  0  0
   21.3337   10.2929   31.7571 C   0  0  0  0  0  0  0  0  0  0  0  0
   21.7030    9.0460   31.3553 N   0  0  0  0  0  0  0  0  0  0  0  0
   20.9397    8.0077   31.7246 C   0  0  0  0  0  0  0  0  0  0  0  0
   19.8167    8.1342   32.5272 C   0  0  0  0  0  0  0  0  0  0  0  0
   19.4419    9.4023   32.9317 C   0  0  0  0  0  0  0  0  0  0  0  0
   18.2880    9.4650   33.7017 N   0  0  0  0  0  0  0  0  0  0  0  0
   20.2000   10.5200   32.5451 C   0  0  3  0  0  0  0  0  0  0  0  0
   19.8477   11.8875   32.9079 C   0  0  0  0  0  0  0  0  0  0  0  0
   19.5764   12.9770   33.1888 N   0  0  0  0  0  0  0  0  0  0  0  0
   21.4299    6.8386   31.1872 N   0  0  0  0  0  0  0  0  0  0  0  0
   20.8469    5.6461   31.0336 C   0  0  0  0  0  0  0  0  0  0  0  0
   19.7112    5.3701   31.4141 O   0  0  0  0  0  0  0  0  0  0  0  0
   21.6405    4.6099   30.2450 C   0  0  0  0  0  0  0  0  0  0  0  0
   23.0890    4.4692   30.6919 C   0  0  0  0  0  0  0  0  0  0  0  0
   23.4115    3.6311   31.7625 C   0  0  0  0  0  0  0  0  0  0  0  0
   24.7308    3.5231   32.1964 C   0  0  0  0  0  0  0  0  0  0  0  0
   25.1131    2.5196   33.5455 Cl  0  0  0  0  0  0  0  0  0  0  0  0
   25.7377    4.2389   31.5498 C   0  0  0  0  0  0  0  0  0  0  0  0
   25.4251    5.0710   30.4731 C   0  0  0  0  0  0  0  0  0  0  0  0
   24.1019    5.1880   30.0463 C   0  0  0  0  0  0  0  0  0  0  0  0
   24.8509   12.2937   29.6593 H   0  0  0  0  0  0  0  0  0  0  0  0
   23.2753   13.1462   29.7891 H   0  0  0  0  0  0  0  0  0  0  0  0
   24.2716   12.8716   31.2583 H   0  0  0  0  0  0  0  0  0  0  0  0
   22.9419   10.6849   29.5551 H   0  0  0  0  0  0  0  0  0  0  0  0
   23.9382   10.4103   31.0243 H   0  0  0  0  0  0  0  0  0  0  0  0
   19.2497    7.2658   32.8285 H   0  0  0  0  0  0  0  0  0  0  0  0
   18.0555   10.4048   33.9523 H   0  0  0  0  0  0  0  0  0  0  0  0
   20.8088   10.4293   33.4568 H   0  0  0  0  0  0  0  0  0  0  0  0
   19.5144    4.4667   31.1959 H   0  0  0  0  0  0  0  0  0  0  0  0
   21.1463    3.6340   30.3608 H   0  0  0  0  0  0  0  0  0  0  0  0
   21.6323    4.9015   29.1844 H   0  0  0  0  0  0  0  0  0  0  0  0
   22.6350    3.0650   32.2554 H   0  0  0  0  0  0  0  0  0  0  0  0
   26.7613    4.1495   31.8825 H   0  0  0  0  0  0  0  0  0  0  0  0
   26.2061    5.6231   29.9715 H   0  0  0  0  0  0  0  0  0  0  0  0
   23.8586    5.8345   29.2161 H   0  0  0  0  0  0  0  0  0  0  0  0
  1  2  1  0  0  0  0
  2  3  1  0  0  0  0
  3  4  1  0  0  0  0
  4 10  1  0  0  0  0
  4  5  2  0  0  0  0
  5  6  1  0  0  0  0
  6  7  2  0  0  0  0
  6 13  1  0  0  0  0
  7  8  1  0  0  0  0
  8  9  2  0  0  0  0
  8 10  1  0  0  0  0
 10 11  1  0  0  0  0
 11 12  3  0  0  0  0
 13 14  2  0  0  0  0
 14 15  1  0  0  0  0
 14 16  1  0  0  0  0
 16 17  1  0  0  0  0
 17 23  2  0  0  0  0
 17 18  1  0  0  0  0
 18 19  2  0  0  0  0
 19 20  1  0  0  0  0
 19 21  1  0  0  0  0
 21 22  2  0  0  0  0
 22 23  1  0  0  0  0
  1 24  1  0  0  0  0
  1 25  1  0  0  0  0
  1 26  1  0  0  0  0
  2 27  1  0  0  0  0
  2 28  1  0  0  0  0
  7 29  1  0  0  0  0
  9 30  1  0  0  0  0
 10 31  1  0  0  0  0
 15 32  1  0  0  0  0
 16 33  1  0  0  0  0
 16 34  1  0  0  0  0
 18 35  1  0  0  0  0
 21 36  1  0  0  0  0
 22 37  1  0  0  0  0
 23 38  1  0  0  0  0
M  END
> <i_m_stars>
0

> <r_user_dG.exp>
-8.872536

$$$$
18626-1
  -OEChem-05192314073D
 Structure written by MMmdl.
 38 39  0     0  0  0  0  0  0999 V2000
   23.9635   12.4497   30.2903 C   0  0  0  0  0  0  0  0  0  0  0  0
   23.2574   11.1110   30.5189 C   0  0  0  0  0  0  0  0  0  0  0  0
   22.1169   11.3548   31.3379 O   0  0  0  0  0  0  0  0  0  0  0  0
   21.3337   10.2929   31.7571 C   0  0  0  0  0  0  0  0  0  0  0  0
   21.7030    9.0460   31.3553 N   0  0  0  0  0  0  0  0  0  0  0  0
   20.9397    8.0077   31.7246 C   0  0  0  0  0  0  0  0  0  0  0  0
   19.8167    8.1342   32.5272 C   0  0  0  0  0  0  0  0  0  0  0  0
   19.4419    9.4023   32.9317 C   0  0  0  0  0  0  0  0  0  0  0  0
   18.2880    9.4650   33.7017 N   0  0  0  0  0  0  0  0  0  0  0  0
   20.2000   10.5200   32.5451 C   0  0  0  0  0  0  0  0  0  0  0  0
   19.8477   11.8875   32.9079 C   0  0  0  0  0  0  0  0  0  0  0  0
   19.5764   12.9770   33.1888 N   0  0  0  0  0  0  0  0  0  0  0  0
   21.4299    6.8386   31.1872 N   0  0  0  0  0  0  0  0  0  0  0  0
   20.8469    5.6461   31.0336 C   0  0  0  0  0  0  0  0  0  0  0  0
   19.7112    5.3701   31.4141 O   0  0  0  0  0  0  0  0  0  0  0  0
   21.6405    4.6099   30.2450 C   0  0  0  0  0  0  0  0  0  0  0  0
   23.0890    4.4692   30.6919 C   0  0  0  0  0  0  0  0  0  0  0  0
   23.4115    3.6311   31.7625 C   0  0  0  0  0  0  0  0  0  0  0  0
   24.7308    3.5231   32.1964 C   0  0  0  0  0  0  0  0  0  0  0  0
   25.1131    2.5196   33.5455 Cl  0  0  0  0  0  0  0  0  0  0  0  0
   25.7377    4.2389   31.5498 C   0  0  0  0  0  0  0  0  0  0  0  0
   25.4251    5.0710   30.4731 C   0  0  0  0  0  0  0  0  0  0  0  0
   24.1019    5.1880   30.0463 C   0  0  0  0  0  0  0  0  0  0  0  0
   24.8509   12.2937   29.6593 H   0  0  0  0  0  0  0  0  0  0  0  0
   23.2753   13.1462   29.7891 H   0  0  0  0  0  0  0  0  0  0  0  0
   24.2716   12.8716   31.2583 H   0  0  0  0  0  0  0  0  0  0  0  0
   22.9419   10.6849   29.5551 H   0  0  0  0  0  0  0  0  0  0  0  0
   23.9382   10.4103   31.0243 H   0  0  0  0  0  0  0  0  0  0  0  0
   18.9693    7.7051   31.9724 H   0  0  0  0  0  0  0  0  0  0  0  0
   19.9973    7.5419   33.4364 H   0  0  0  0  0  0  0  0  0  0  0  0
   18.0555   10.4048   33.9523 H   0  0  0  0  0  0  0  0  0  0  0  0
   19.5144    4.4667   31.1959 H   0  0  0  0  0  0  0  0  0  0  0  0
   21.1463    3.6340   30.3608 H   0  0  0  0  0  0  0  0  0  0  0  0
   21.6323    4.9015   29.1844 H   0  0  0  0  0  0  0  0  0  0  0  0
   22.6350    3.0650   32.2554 H   0  0  0  0  0  0  0  0  0  0  0  0
   26.7613    4.1495   31.8825 H   0  0  0  0  0  0  0  0  0  0  0  0
   26.2061    5.6231   29.9715 H   0  0  0  0  0  0  0  0  0  0  0  0
   23.8586    5.8345   29.2161 H   0  0  0  0  0  0  0  0  0  0  0  0
  1  2  1  0  0  0  0
  2  3  1  0  0  0  0
  3  4  1  0  0  0  0
  4 10  2  0  0  0  0
  4  5  1  0  0  0  0
  5  6  2  0  0  0  0
  6  7  1  0  0  0  0
  6 13  1  0  0  0  0
  7  8  1  0  0  0  0
  8  9  2  0  0  0  0
  8 10  1  0  0  0  0
 10 11  1  0  0  0  0
 11 12  3  0  0  0  0
 13 14  2  0  0  0  0
 14 15  1  0  0  0  0
 14 16  1  0  0  0  0
 16 17  1  0  0  0  0
 17 23  2  0  0  0  0
 17 18  1  0  0  0  0
 18 19  2  0  0  0  0
 19 20  1  0  0  0  0
 19 21  1  0  0  0  0
 21 22  2  0  0  0  0
 22 23  1  0  0  0  0
  1 24  1  0  0  0  0
  1 25  1  0  0  0  0
  1 26  1  0  0  0  0
  2 27  1  0  0  0  0
  2 28  1  0  0  0  0
  7 29  1  0  0  0  0
  7 30  1  0  0  0  0
  9 31  1  0  0  0  0
 15 32  1  0  0  0  0
 16 33  1  0  0  0  0
 16 34  1  0  0  0  0
 18 35  1  0  0  0  0
 21 36  1  0  0  0  0
 22 37  1  0  0  0  0
 23 38  1  0  0  0  0
M  END
> <i_m_stars>
0

> <r_user_dG.exp>
-8.872536

$$$$
