18632-1
  -OEChem-05192314073D
 Structure written by MMmdl.
 42 43  0     0  0  0  0  0  0999 V2000
   22.8348   10.6133   29.0685 C   0  0  0  0  0  0  0  0  0  0  0  0
   23.2564   10.8543   30.5245 C   0  0  0  0  0  0  0  0  0  0  0  0
   22.1208   11.1384   31.3461 O   0  0  0  0  0  0  0  0  0  0  0  0
   21.3028   10.1143   31.7943 C   0  0  0  0  0  0  0  0  0  0  0  0
   21.6562    8.8449   31.4620 N   0  0  0  0  0  0  0  0  0  0  0  0
   20.8562    7.8405   31.8366 C   0  0  0  0  0  0  0  0  0  0  0  0
   19.7056    8.0208   32.5847 C   0  0  0  0  0  0  0  0  0  0  0  0
   19.3552    9.3103   32.9399 C   0  0  0  0  0  0  0  0  0  0  0  0
   18.1854    9.4218   33.6784 N   0  0  0  0  0  0  0  0  0  0  0  0
   20.1562   10.3962   32.5462 C   0  0  0  0  0  0  0  0  0  0  0  0
   19.8394   11.7813   32.8754 C   0  0  0  0  0  0  0  0  0  0  0  0
   19.5962   12.8840   33.1326 N   0  0  0  0  0  0  0  0  0  0  0  0
   21.3594    6.6315   31.4180 N   0  0  0  0  0  0  0  0  0  0  0  0
   20.7263    5.4857   31.1542 C   0  0  0  0  0  0  0  0  0  0  0  0
   19.5060    5.3615   31.2301 O   0  0  0  0  0  0  0  0  0  0  0  0
   21.5718    4.2763   30.7231 C   0  0  0  0  0  0  0  0  0  0  0  0
   23.0667    4.5575   30.5721 C   0  0  0  0  0  0  0  0  0  0  0  0
   23.9662    4.1691   31.5713 C   0  0  0  0  0  0  0  0  0  0  0  0
   25.3371    4.3576   31.4206 C   0  0  0  0  0  0  0  0  0  0  0  0
   26.1329    3.8953   32.4456 O   0  0  0  0  0  0  0  0  0  0  0  0
   27.5411    4.0836   32.3620 C   0  0  0  0  0  0  0  0  0  0  0  0
   25.8096    4.9784   30.2546 C   0  0  0  0  0  0  0  0  0  0  0  0
   24.9199    5.3917   29.2621 C   0  0  0  0  0  0  0  0  0  0  0  0
   23.5514    5.1788   29.4197 C   0  0  0  0  0  0  0  0  0  0  0  0
   23.7250   10.3975   28.4594 H   0  0  0  0  0  0  0  0  0  0  0  0
   22.1439    9.7585   29.0237 H   0  0  0  0  0  0  0  0  0  0  0  0
   22.3329   11.5112   28.6788 H   0  0  0  0  0  0  0  0  0  0  0  0
   23.7609    9.9546   30.9066 H   0  0  0  0  0  0  0  0  0  0  0  0
   23.9499   11.7073   30.5618 H   0  0  0  0  0  0  0  0  0  0  0  0
   19.0989    7.1784   32.8824 H   0  0  0  0  0  0  0  0  0  0  0  0
   18.0134   10.3844   33.8879 H   0  0  0  0  0  0  0  0  0  0  0  0
   17.4208    9.0542   33.1490 H   0  0  0  0  0  0  0  0  0  0  0  0
   22.3511    6.6063   31.2918 H   0  0  0  0  0  0  0  0  0  0  0  0
   21.4473    3.4858   31.4778 H   0  0  0  0  0  0  0  0  0  0  0  0
   21.1912    3.9213   29.7540 H   0  0  0  0  0  0  0  0  0  0  0  0
   23.5899    3.7148   32.4759 H   0  0  0  0  0  0  0  0  0  0  0  0
   28.0220    3.6589   33.2555 H   0  0  0  0  0  0  0  0  0  0  0  0
   27.9257    3.5786   31.4636 H   0  0  0  0  0  0  0  0  0  0  0  0
   27.7642    5.1591   32.3019 H   0  0  0  0  0  0  0  0  0  0  0  0
   26.8698    5.1376   30.1241 H   0  0  0  0  0  0  0  0  0  0  0  0
   25.2918    5.8766   28.3716 H   0  0  0  0  0  0  0  0  0  0  0  0
   22.8646    5.4952   28.6486 H   0  0  0  0  0  0  0  0  0  0  0  0
  1  2  1  0  0  0  0
  2  3  1  0  0  0  0
  3  4  1  0  0  0  0
  4 10  2  0  0  0  0
  4  5  1  0  0  0  0
  5  6  2  0  0  0  0
  6  7  1  0  0  0  0
  6 13  1  0  0  0  0
  7  8  2  0  0  0  0
  8  9  1  0  0  0  0
  8 10  1  0  0  0  0
 10 11  1  0  0  0  0
 11 12  3  0  0  0  0
 13 14  1  0  0  0  0
 14 15  2  0  0  0  0
 14 16  1  0  0  0  0
 16 17  1  0  0  0  0
 17 24  2  0  0  0  0
 17 18  1  0  0  0  0
 18 19  2  0  0  0  0
 19 20  1  0  0  0  0
 19 22  1  0  0  0  0
 20 21  1  0  0  0  0
 22 23  2  0  0  0  0
 23 24  1  0  0  0  0
  1 25  1  0  0  0  0
  1 26  1  0  0  0  0
  1 27  1  0  0  0  0
  2 28  1  0  0  0  0
  2 29  1  0  0  0  0
  7 30  1  0  0  0  0
  9 31  1  0  0  0  0
  9 32  1  0  0  0  0
 13 33  1  0  0  0  0
 16 34  1  0  0  0  0
 16 35  1  0  0  0  0
 18 36  1  0  0  0  0
 21 37  1  0  0  0  0
 21 38  1  0  0  0  0
 21 39  1  0  0  0  0
 22 40  1  0  0  0  0
 23 41  1  0  0  0  0
 24 42  1  0  0  0  0
M  END
> <i_m_stars>
0

> <r_user_dG.exp>
-9.083236

$$$$
18632-1
  -OEChem-05192314073D
 Structure written by MMmdl.
 42 43  0     0  0  0  0  0  0999 V2000
   22.8348   10.6133   29.0685 C   0  0  0  0  0  0  0  0  0  0  0  0
   23.2564   10.8543   30.5245 C   0  0  0  0  0  0  0  0  0  0  0  0
   22.1208   11.1384   31.3461 O   0  0  0  0  0  0  0  0  0  0  0  0
   21.3028   10.1143   31.7943 C   0  0  0  0  0  0  0  0  0  0  0  0
   21.6562    8.8449   31.4620 N   0  0  0  0  0  0  0  0  0  0  0  0
   20.8562    7.8405   31.8366 C   0  0  0  0  0  0  0  0  0  0  0  0
   19.7056    8.0208   32.5847 C   0  0  0  0  0  0  0  0  0  0  0  0
   19.3552    9.3103   32.9399 C   0  0  0  0  0  0  0  0  0  0  0  0
   18.1854    9.4218   33.6784 N   0  0  0  0  0  0  0  0  0  0  0  0
   20.1562   10.3962   32.5462 C   0  0  0  0  0  0  0  0  0  0  0  0
   19.8394   11.7813   32.8754 C   0  0  0  0  0  0  0  0  0  0  0  0
   19.5962   12.8840   33.1326 N   0  0  0  0  0  0  0  0  0  0  0  0
   21.3594    6.6315   31.4180 N   0  0  0  0  0  0  0  0  0  0  0  0
   20.7263    5.4857   31.1542 C   0  0  0  0  0  0  0  0  0  0  0  0
   19.5060    5.3615   31.2301 O   0  0  0  0  0  0  0  0  0  0  0  0
   21.5718    4.2763   30.7231 C   0  0  0  0  0  0  0  0  0  0  0  0
   23.0667    4.5575   30.5721 C   0  0  0  0  0  0  0  0  0  0  0  0
   23.9662    4.1691   31.5713 C   0  0  0  0  0  0  0  0  0  0  0  0
   25.3371    4.3576   31.4206 C   0  0  0  0  0  0  0  0  0  0  0  0
   26.1329    3.8953   32.4456 O   0  0  0  0  0  0  0  0  0  0  0  0
   27.5411    4.0836   32.3620 C   0  0  0  0  0  0  0  0  0  0  0  0
   25.8096    4.9784   30.2546 C   0  0  0  0  0  0  0  0  0  0  0  0
   24.9199    5.3917   29.2621 C   0  0  0  0  0  0  0  0  0  0  0  0
   23.5514    5.1788   29.4197 C   0  0  0  0  0  0  0  0  0  0  0  0
   23.7250   10.3975   28.4594 H   0  0  0  0  0  0  0  0  0  0  0  0
   22.1439    9.7585   29.0237 H   0  0  0  0  0  0  0  0  0  0  0  0
   22.3329   11.5112   28.6788 H   0  0  0  0  0  0  0  0  0  0  0  0
   23.7609    9.9546   30.9066 H   0  0  0  0  0  0  0  0  0  0  0  0
   23.9499   11.7073   30.5618 H   0  0  0  0  0  0  0  0  0  0  0  0
   19.0989    7.1784   32.8824 H   0  0  0  0  0  0  0  0  0  0  0  0
   18.0134   10.3844   33.8879 H   0  0  0  0  0  0  0  0  0  0  0  0
   17.4208    9.0542   33.1490 H   0  0  0  0  0  0  0  0  0  0  0  0
   19.2631    4.4717   31.0027 H   0  0  0  0  0  0  0  0  0  0  0  0
   21.4473    3.4858   31.4778 H   0  0  0  0  0  0  0  0  0  0  0  0
   21.1912    3.9213   29.7540 H   0  0  0  0  0  0  0  0  0  0  0  0
   23.5899    3.7148   32.4759 H   0  0  0  0  0  0  0  0  0  0  0  0
   28.0220    3.6589   33.2555 H   0  0  0  0  0  0  0  0  0  0  0  0
   27.9257    3.5786   31.4636 H   0  0  0  0  0  0  0  0  0  0  0  0
   27.7642    5.1591   32.3019 H   0  0  0  0  0  0  0  0  0  0  0  0
   26.8698    5.1376   30.1241 H   0  0  0  0  0  0  0  0  0  0  0  0
   25.2918    5.8766   28.3716 H   0  0  0  0  0  0  0  0  0  0  0  0
   22.8646    5.4952   28.6486 H   0  0  0  0  0  0  0  0  0  0  0  0
  1  2  1  0  0  0  0
  2  3  1  0  0  0  0
  3  4  1  0  0  0  0
  4 10  2  0  0  0  0
  4  5  1  0  0  0  0
  5  6  2  0  0  0  0
  6  7  1  0  0  0  0
  6 13  1  0  0  0  0
  7  8  2  0  0  0  0
  8  9  1  0  0  0  0
  8 10  1  0  0  0  0
 10 11  1  0  0  0  0
 11 12  3  0  0  0  0
 13 14  2  0  0  0  0
 14 15  1  0  0  0  0
 14 16  1  0  0  0  0
 16 17  1  0  0  0  0
 17 24  2  0  0  0  0
 17 18  1  0  0  0  0
 18 19  2  0  0  0  0
 19 20  1  0  0  0  0
 19 22  1  0  0  0  0
 20 21  1  0  0  0  0
 22 23  2  0  0  0  0
 23 24  1  0  0  0  0
  1 25  1  0  0  0  0
  1 26  1  0  0  0  0
  1 27  1  0  0  0  0
  2 28  1  0  0  0  0
  2 29  1  0  0  0  0
  7 30  1  0  0  0  0
  9 31  1  0  0  0  0
  9 32  1  0  0  0  0
 15 33  1  0  0  0  0
 16 34  1  0  0  0  0
 16 35  1  0  0  0  0
 18 36  1  0  0  0  0
 21 37  1  0  0  0  0
 21 38  1  0  0  0  0
 21 39  1  0  0  0  0
 22 40  1  0  0  0  0
 23 41  1  0  0  0  0
 24 42  1  0  0  0  0
M  END
> <i_m_stars>
0

> <r_user_dG.exp>
-9.083236

$$$$
18632-1
  -OEChem-05192314073D
 Structure written by MMmdl.
 42 43  0     0  0  0  0  0  0999 V2000
   22.8348   10.6133   29.0685 C   0  0  0  0  0  0  0  0  0  0  0  0
   23.2564   10.8543   30.5245 C   0  0  0  0  0  0  0  0  0  0  0  0
   22.1208   11.1384   31.3461 O   0  0  0  0  0  0  0  0  0  0  0  0
   21.3028   10.1143   31.7943 C   0  0  0  0  0  0  0  0  0  0  0  0
   21.6562    8.8449   31.4620 N   0  0  0  0  0  0  0  0  0  0  0  0
   20.8562    7.8405   31.8366 C   0  0  0  0  0  0  0  0  0  0  0  0
   19.7056    8.0208   32.5847 C   0  0  0  0  0  0  0  0  0  0  0  0
   19.3552    9.3103   32.9399 C   0  0  0  0  0  0  0  0  0  0  0  0
   18.1854    9.4218   33.6784 N   0  0  0  0  0  0  0  0  0  0  0  0
   20.1562   10.3962   32.5462 C   0  0  0  0  0  0  0  0  0  0  0  0
   19.8394   11.7813   32.8754 C   0  0  0  0  0  0  0  0  0  0  0  0
   19.5962   12.8840   33.1326 N   0  0  0  0  0  0  0  0  0  0  0  0
   21.3594    6.6315   31.4180 N   0  0  0  0  0  0  0  0  0  0  0  0
   20.7263    5.4857   31.1542 C   0  0  0  0  0  0  0  0  0  0  0  0
   19.5060    5.3615   31.2301 O   0  0  0  0  0  0  0  0  0  0  0  0
   21.5718    4.2763   30.7231 C   0  0  0  0  0  0  0  0  0  0  0  0
   23.0667    4.5575   30.5721 C   0  0  0  0  0  0  0  0  0  0  0  0
   23.9662    4.1691   31.5713 C   0  0  0  0  0  0  0  0  0  0  0  0
   25.3371    4.3576   31.4206 C   0  0  0  0  0  0  0  0  0  0  0  0
   26.1329    3.8953   32.4456 O   0  0  0  0  0  0  0  0  0  0  0  0
   27.5411    4.0836   32.3620 C   0  0  0  0  0  0  0  0  0  0  0  0
   25.8096    4.9784   30.2546 C   0  0  0  0  0  0  0  0  0  0  0  0
   24.9199    5.3917   29.2621 C   0  0  0  0  0  0  0  0  0  0  0  0
   23.5514    5.1788   29.4197 C   0  0  0  0  0  0  0  0  0  0  0  0
   23.7250   10.3975   28.4594 H   0  0  0  0  0  0  0  0  0  0  0  0
   22.1439    9.7585   29.0237 H   0  0  0  0  0  0  0  0  0  0  0  0
   22.3329   11.5112   28.6788 H   0  0  0  0  0  0  0  0  0  0  0  0
   23.7609    9.9546   30.9066 H   0  0  0  0  0  0  0  0  0  0  0  0
   23.9499   11.7073   30.5618 H   0  0  0  0  0  0  0  0  0  0  0  0
   22.4956    8.6657   30.9489 H   0  0  0  0  0  0  0  0  0  0  0  0
   19.0989    7.1784   32.8824 H   0  0  0  0  0  0  0  0  0  0  0  0
   17.9729   10.3730   33.9022 H   0  0  0  0  0  0  0  0  0  0  0  0
   22.3511    6.6063   31.2918 H   0  0  0  0  0  0  0  0  0  0  0  0
   21.4473    3.4858   31.4778 H   0  0  0  0  0  0  0  0  0  0  0  0
   21.1912    3.9213   29.7540 H   0  0  0  0  0  0  0  0  0  0  0  0
   23.5899    3.7148   32.4759 H   0  0  0  0  0  0  0  0  0  0  0  0
   28.0220    3.6589   33.2555 H   0  0  0  0  0  0  0  0  0  0  0  0
   27.9257    3.5786   31.4636 H   0  0  0  0  0  0  0  0  0  0  0  0
   27.7642    5.1591   32.3019 H   0  0  0  0  0  0  0  0  0  0  0  0
   26.8698    5.1376   30.1241 H   0  0  0  0  0  0  0  0  0  0  0  0
   25.2918    5.8766   28.3716 H   0  0  0  0  0  0  0  0  0  0  0  0
   22.8646    5.4952   28.6486 H   0  0  0  0  0  0  0  0  0  0  0  0
  1  2  1  0  0  0  0
  2  3  1  0  0  0  0
  3  4  1  0  0  0  0
  4 10  2  0  0  0  0
  4  5  1  0  0  0  0
  5  6  1  0  0  0  0
  6  7  2  0  0  0  0
  6 13  1  0  0  0  0
  7  8  1  0  0  0  0
  8  9  2  0  0  0  0
  8 10  1  0  0  0  0
 10 11  1  0  0  0  0
 11 12  3  0  0  0  0
 13 14  1  0  0  0  0
 14 15  2  0  0  0  0
 14 16  1  0  0  0  0
 16 17  1  0  0  0  0
 17 24  2  0  0  0  0
 17 18  1  0  0  0  0
 18 19  2  0  0  0  0
 19 20  1  0  0  0  0
 19 22  1  0  0  0  0
 20 21  1  0  0  0  0
 22 23  2  0  0  0  0
 23 24  1  0  0  0  0
  1 25  1  0  0  0  0
  1 26  1  0  0  0  0
  1 27  1  0  0  0  0
  2 28  1  0  0  0  0
  2 29  1  0  0  0  0
  5 30  1  0  0  0  0
  7 31  1  0  0  0  0
  9 32  1  0  0  0  0
 13 33  1  0  0  0  0
 16 34  1  0  0  0  0
 16 35  1  0  0  0  0
 18 36  1  0  0  0  0
 21 37  1  0  0  0  0
 21 38  1  0  0  0  0
 21 39  1  0  0  0  0
 22 40  1  0  0  0  0
 23 41  1  0  0  0  0
 24 42  1  0  0  0  0
M  END
> <i_m_stars>
0

> <r_user_dG.exp>
-9.083236

$$$$
18632-1
  -OEChem-05192314073D
 Structure written by MMmdl.
 42 43  0     0  0  0  0  0  0999 V2000
   22.8348   10.6133   29.0685 C   0  0  0  0  0  0  0  0  0  0  0  0
   23.2564   10.8543   30.5245 C   0  0  0  0  0  0  0  0  0  0  0  0
   22.1208   11.1384   31.3461 O   0  0  0  0  0  0  0  0  0  0  0  0
   21.3028   10.1143   31.7943 C   0  0  0  0  0  0  0  0  0  0  0  0
   21.6562    8.8449   31.4620 N   0  0  0  0  0  0  0  0  0  0  0  0
   20.8562    7.8405   31.8366 C   0  0  0  0  0  0  0  0  0  0  0  0
   19.7056    8.0208   32.5847 C   0  0  0  0  0  0  0  0  0  0  0  0
   19.3552    9.3103   32.9399 C   0  0  0  0  0  0  0  0  0  0  0  0
   18.1854    9.4218   33.6784 N   0  0  0  0  0  0  0  0  0  0  0  0
   20.1562   10.3962   32.5462 C   0  0  0  0  0  0  0  0  0  0  0  0
   19.8394   11.7813   32.8754 C   0  0  0  0  0  0  0  0  0  0  0  0
   19.5962   12.8840   33.1326 N   0  0  0  0  0  0  0  0  0  0  0  0
   21.3594    6.6315   31.4180 N   0  0  0  0  0  0  0  0  0  0  0  0
   20.7263    5.4857   31.1542 C   0  0  0  0  0  0  0  0  0  0  0  0
   19.5060    5.3615   31.2301 O   0  0  0  0  0  0  0  0  0  0  0  0
   21.5718    4.2763   30.7231 C   0  0  0  0  0  0  0  0  0  0  0  0
   23.0667    4.5575   30.5721 C   0  0  0  0  0  0  0  0  0  0  0  0
   23.9662    4.1691   31.5713 C   0  0  0  0  0  0  0  0  0  0  0  0
   25.3371    4.3576   31.4206 C   0  0  0  0  0  0  0  0  0  0  0  0
   26.1329    3.8953   32.4456 O   0  0  0  0  0  0  0  0  0  0  0  0
   27.5411    4.0836   32.3620 C   0  0  0  0  0  0  0  0  0  0  0  0
   25.8096    4.9784   30.2546 C   0  0  0  0  0  0  0  0  0  0  0  0
   24.9199    5.3917   29.2621 C   0  0  0  0  0  0  0  0  0  0  0  0
   23.5514    5.1788   29.4197 C   0  0  0  0  0  0  0  0  0  0  0  0
   23.7250   10.3975   28.4594 H   0  0  0  0  0  0  0  0  0  0  0  0
   22.1439    9.7585   29.0237 H   0  0  0  0  0  0  0  0  0  0  0  0
   22.3329   11.5112   28.6788 H   0  0  0  0  0  0  0  0  0  0  0  0
   23.7609    9.9546   30.9066 H   0  0  0  0  0  0  0  0  0  0  0  0
   23.9499   11.7073   30.5618 H   0  0  0  0  0  0  0  0  0  0  0  0
   22.4956    8.6657   30.9489 H   0  0  0  0  0  0  0  0  0  0  0  0
   19.0989    7.1784   32.8824 H   0  0  0  0  0  0  0  0  0  0  0  0
   18.0134   10.3844   33.8879 H   0  0  0  0  0  0  0  0  0  0  0  0
   17.4208    9.0542   33.1490 H   0  0  0  0  0  0  0  0  0  0  0  0
   21.4473    3.4858   31.4778 H   0  0  0  0  0  0  0  0  0  0  0  0
   21.1912    3.9213   29.7540 H   0  0  0  0  0  0  0  0  0  0  0  0
   23.5899    3.7148   32.4759 H   0  0  0  0  0  0  0  0  0  0  0  0
   28.0220    3.6589   33.2555 H   0  0  0  0  0  0  0  0  0  0  0  0
   27.9257    3.5786   31.4636 H   0  0  0  0  0  0  0  0  0  0  0  0
   27.7642    5.1591   32.3019 H   0  0  0  0  0  0  0  0  0  0  0  0
   26.8698    5.1376   30.1241 H   0  0  0  0  0  0  0  0  0  0  0  0
   25.2918    5.8766   28.3716 H   0  0  0  0  0  0  0  0  0  0  0  0
   22.8646    5.4952   28.6486 H   0  0  0  0  0  0  0  0  0  0  0  0
  1  2  1  0  0  0  0
  2  3  1  0  0  0  0
  3  4  1  0  0  0  0
  4 10  2  0  0  0  0
  4  5  1  0  0  0  0
  5  6  1  0  0  0  0
  6  7  1  0  0  0  0
  6 13  2  0  0  0  0
  7  8  2  0  0  0  0
  8  9  1  0  0  0  0
  8 10  1  0  0  0  0
 10 11  1  0  0  0  0
 11 12  3  0  0  0  0
 13 14  1  0  0  0  0
 14 15  2  0  0  0  0
 14 16  1  0  0  0  0
 16 17  1  0  0  0  0
 17 24  2  0  0  0  0
 17 18  1  0  0  0  0
 18 19  2  0  0  0  0
 19 20  1  0  0  0  0
 19 22  1  0  0  0  0
 20 21  1  0  0  0  0
 22 23  2  0  0  0  0
 23 24  1  0  0  0  0
  1 25  1  0  0  0  0
  1 26  1  0  0  0  0
  1 27  1  0  0  0  0
  2 28  1  0  0  0  0
  2 29  1  0  0  0  0
  5 30  1  0  0  0  0
  7 31  1  0  0  0  0
  9 32  1  0  0  0  0
  9 33  1  0  0  0  0
 16 34  1  0  0  0  0
 16 35  1  0  0  0  0
 18 36  1  0  0  0  0
 21 37  1  0  0  0  0
 21 38  1  0  0  0  0
 21 39  1  0  0  0  0
 22 40  1  0  0  0  0
 23 41  1  0  0  0  0
 24 42  1  0  0  0  0
M  END
> <i_m_stars>
0

> <r_user_dG.exp>
-9.083236

$$$$
18632-1
  -OEChem-05192314073D
 Structure written by MMmdl.
 42 43  0     0  0  0  0  0  0999 V2000
   22.8348   10.6133   29.0685 C   0  0  0  0  0  0  0  0  0  0  0  0
   23.2564   10.8543   30.5245 C   0  0  0  0  0  0  0  0  0  0  0  0
   22.1208   11.1384   31.3461 O   0  0  0  0  0  0  0  0  0  0  0  0
   21.3028   10.1143   31.7943 C   0  0  0  0  0  0  0  0  0  0  0  0
   21.6562    8.8449   31.4620 N   0  0  0  0  0  0  0  0  0  0  0  0
   20.8562    7.8405   31.8366 C   0  0  0  0  0  0  0  0  0  0  0  0
   19.7056    8.0208   32.5847 C   0  0  0  0  0  0  0  0  0  0  0  0
   19.3552    9.3103   32.9399 C   0  0  0  0  0  0  0  0  0  0  0  0
   18.1854    9.4218   33.6784 N   0  0  0  0  0  0  0  0  0  0  0  0
   20.1562   10.3962   32.5462 C   0  0  0  0  0  0  0  0  0  0  0  0
   19.8394   11.7813   32.8754 C   0  0  0  0  0  0  0  0  0  0  0  0
   19.5962   12.8840   33.1326 N   0  0  0  0  0  0  0  0  0  0  0  0
   21.3594    6.6315   31.4180 N   0  0  0  0  0  0  0  0  0  0  0  0
   20.7263    5.4857   31.1542 C   0  0  0  0  0  0  0  0  0  0  0  0
   19.5060    5.3615   31.2301 O   0  0  0  0  0  0  0  0  0  0  0  0
   21.5718    4.2763   30.7231 C   0  0  0  0  0  0  0  0  0  0  0  0
   23.0667    4.5575   30.5721 C   0  0  0  0  0  0  0  0  0  0  0  0
   23.9662    4.1691   31.5713 C   0  0  0  0  0  0  0  0  0  0  0  0
   25.3371    4.3576   31.4206 C   0  0  0  0  0  0  0  0  0  0  0  0
   26.1329    3.8953   32.4456 O   0  0  0  0  0  0  0  0  0  0  0  0
   27.5411    4.0836   32.3620 C   0  0  0  0  0  0  0  0  0  0  0  0
   25.8096    4.9784   30.2546 C   0  0  0  0  0  0  0  0  0  0  0  0
   24.9199    5.3917   29.2621 C   0  0  0  0  0  0  0  0  0  0  0  0
   23.5514    5.1788   29.4197 C   0  0  0  0  0  0  0  0  0  0  0  0
   23.7250   10.3975   28.4594 H   0  0  0  0  0  0  0  0  0  0  0  0
   22.1439    9.7585   29.0237 H   0  0  0  0  0  0  0  0  0  0  0  0
   22.3329   11.5112   28.6788 H   0  0  0  0  0  0  0  0  0  0  0  0
   23.7609    9.9546   30.9066 H   0  0  0  0  0  0  0  0  0  0  0  0
   23.9499   11.7073   30.5618 H   0  0  0  0  0  0  0  0  0  0  0  0
   22.4956    8.6657   30.9489 H   0  0  0  0  0  0  0  0  0  0  0  0
   19.0989    7.1784   32.8824 H   0  0  0  0  0  0  0  0  0  0  0  0
   17.9729   10.3730   33.9022 H   0  0  0  0  0  0  0  0  0  0  0  0
   19.2631    4.4717   31.0027 H   0  0  0  0  0  0  0  0  0  0  0  0
   21.4473    3.4858   31.4778 H   0  0  0  0  0  0  0  0  0  0  0  0
   21.1912    3.9213   29.7540 H   0  0  0  0  0  0  0  0  0  0  0  0
   23.5899    3.7148   32.4759 H   0  0  0  0  0  0  0  0  0  0  0  0
   28.0220    3.6589   33.2555 H   0  0  0  0  0  0  0  0  0  0  0  0
   27.9257    3.5786   31.4636 H   0  0  0  0  0  0  0  0  0  0  0  0
   27.7642    5.1591   32.3019 H   0  0  0  0  0  0  0  0  0  0  0  0
   26.8698    5.1376   30.1241 H   0  0  0  0  0  0  0  0  0  0  0  0
   25.2918    5.8766   28.3716 H   0  0  0  0  0  0  0  0  0  0  0  0
   22.8646    5.4952   28.6486 H   0  0  0  0  0  0  0  0  0  0  0  0
  1  2  1  0  0  0  0
  2  3  1  0  0  0  0
  3  4  1  0  0  0  0
  4 10  2  0  0  0  0
  4  5  1  0  0  0  0
  5  6  1  0  0  0  0
  6  7  2  0  0  0  0
  6 13  1  0  0  0  0
  7  8  1  0  0  0  0
  8  9  2  0  0  0  0
  8 10  1  0  0  0  0
 10 11  1  0  0  0  0
 11 12  3  0  0  0  0
 13 14  2  0  0  0  0
 14 15  1  0  0  0  0
 14 16  1  0  0  0  0
 16 17  1  0  0  0  0
 17 24  2  0  0  0  0
 17 18  1  0  0  0  0
 18 19  2  0  0  0  0
 19 20  1  0  0  0  0
 19 22  1  0  0  0  0
 20 21  1  0  0  0  0
 22 23  2  0  0  0  0
 23 24  1  0  0  0  0
  1 25  1  0  0  0  0
  1 26  1  0  0  0  0
  1 27  1  0  0  0  0
  2 28  1  0  0  0  0
  2 29  1  0  0  0  0
  5 30  1  0  0  0  0
  7 31  1  0  0  0  0
  9 32  1  0  0  0  0
 15 33  1  0  0  0  0
 16 34  1  0  0  0  0
 16 35  1  0  0  0  0
 18 36  1  0  0  0  0
 21 37  1  0  0  0  0
 21 38  1  0  0  0  0
 21 39  1  0  0  0  0
 22 40  1  0  0  0  0
 23 41  1  0  0  0  0
 24 42  1  0  0  0  0
M  END
> <i_m_stars>
0

> <r_user_dG.exp>
-9.083236

$$$$
18632-1
  -OEChem-05192314073D
 Structure written by MMmdl.
 42 43  0     1  0  0  0  0  0999 V2000
   22.8348   10.6133   29.0685 C   0  0  0  0  0  0  0  0  0  0  0  0
   23.2564   10.8543   30.5245 C   0  0  0  0  0  0  0  0  0  0  0  0
   22.1208   11.1384   31.3461 O   0  0  0  0  0  0  0  0  0  0  0  0
   21.3028   10.1143   31.7943 C   0  0  0  0  0  0  0  0  0  0  0  0
   21.6562    8.8449   31.4620 N   0  0  0  0  0  0  0  0  0  0  0  0
   20.8562    7.8405   31.8366 C   0  0  0  0  0  0  0  0  0  0  0  0
   19.7056    8.0208   32.5847 C   0  0  0  0  0  0  0  0  0  0  0  0
   19.3552    9.3103   32.9399 C   0  0  0  0  0  0  0  0  0  0  0  0
   18.1854    9.4218   33.6784 N   0  0  0  0  0  0  0  0  0  0  0  0
   20.1562   10.3962   32.5462 C   0  0  3  0  0  0  0  0  0  0  0  0
   19.8394   11.7813   32.8754 C   0  0  0  0  0  0  0  0  0  0  0  0
   19.5962   12.8840   33.1326 N   0  0  0  0  0  0  0  0  0  0  0  0
   21.3594    6.6315   31.4180 N   0  0  0  0  0  0  0  0  0  0  0  0
   20.7263    5.4857   31.1542 C   0  0  0  0  0  0  0  0  0  0  0  0
   19.5060    5.3615   31.2301 O   0  0  0  0  0  0  0  0  0  0  0  0
   21.5718    4.2763   30.7231 C   0  0  0  0  0  0  0  0  0  0  0  0
   23.0667    4.5575   30.5721 C   0  0  0  0  0  0  0  0  0  0  0  0
   23.9662    4.1691   31.5713 C   0  0  0  0  0  0  0  0  0  0  0  0
   25.3371    4.3576   31.4206 C   0  0  0  0  0  0  0  0  0  0  0  0
   26.1329    3.8953   32.4456 O   0  0  0  0  0  0  0  0  0  0  0  0
   27.5411    4.0836   32.3620 C   0  0  0  0  0  0  0  0  0  0  0  0
   25.8096    4.9784   30.2546 C   0  0  0  0  0  0  0  0  0  0  0  0
   24.9199    5.3917   29.2621 C   0  0  0  0  0  0  0  0  0  0  0  0
   23.5514    5.1788   29.4197 C   0  0  0  0  0  0  0  0  0  0  0  0
   23.7250   10.3975   28.4594 H   0  0  0  0  0  0  0  0  0  0  0  0
   22.1439    9.7585   29.0237 H   0  0  0  0  0  0  0  0  0  0  0  0
   22.3329   11.5112   28.6788 H   0  0  0  0  0  0  0  0  0  0  0  0
   23.7609    9.9546   30.9066 H   0  0  0  0  0  0  0  0  0  0  0  0
   23.9499   11.7073   30.5618 H   0  0  0  0  0  0  0  0  0  0  0  0
   18.8697    7.6034   32.0041 H   0  0  0  0  0  0  0  0  0  0  0  0
   19.8280    7.4474   33.5154 H   0  0  0  0  0  0  0  0  0  0  0  0
   17.9729   10.3730   33.9022 H   0  0  0  0  0  0  0  0  0  0  0  0
   20.7394   10.3061   33.4745 H   0  0  0  0  0  0  0  0  0  0  0  0
   21.4473    3.4858   31.4778 H   0  0  0  0  0  0  0  0  0  0  0  0
   21.1912    3.9213   29.7540 H   0  0  0  0  0  0  0  0  0  0  0  0
   23.5899    3.7148   32.4759 H   0  0  0  0  0  0  0  0  0  0  0  0
   28.0220    3.6589   33.2555 H   0  0  0  0  0  0  0  0  0  0  0  0
   27.9257    3.5786   31.4636 H   0  0  0  0  0  0  0  0  0  0  0  0
   27.7642    5.1591   32.3019 H   0  0  0  0  0  0  0  0  0  0  0  0
   26.8698    5.1376   30.1241 H   0  0  0  0  0  0  0  0  0  0  0  0
   25.2918    5.8766   28.3716 H   0  0  0  0  0  0  0  0  0  0  0  0
   22.8646    5.4952   28.6486 H   0  0  0  0  0  0  0  0  0  0  0  0
  1  2  1  0  0  0  0
  2  3  1  0  0  0  0
  3  4  1  0  0  0  0
  4 10  1  0  0  0  0
  4  5  2  0  0  0  0
  5  6  1  0  0  0  0
  6  7  1  0  0  0  0
  6 13  2  0  0  0  0
  7  8  1  0  0  0  0
  8  9  2  0  0  0  0
  8 10  1  0  0  0  0
 10 11  1  0  0  0  0
 11 12  3  0  0  0  0
 13 14  1  0  0  0  0
 14 15  2  0  0  0  0
 14 16  1  0  0  0  0
 16 17  1  0  0  0  0
 17 24  2  0  0  0  0
 17 18  1  0  0  0  0
 18 19  2  0  0  0  0
 19 20  1  0  0  0  0
 19 22  1  0  0  0  0
 20 21  1  0  0  0  0
 22 23  2  0  0  0  0
 23 24  1  0  0  0  0
  1 25  1  0  0  0  0
  1 26  1  0  0  0  0
  1 27  1  0  0  0  0
  2 28  1  0  0  0  0
  2 29  1  0  0  0  0
  7 30  1  0  0  0  0
  7 31  1  0  0  0  0
  9 32  1  0  0  0  0
 10 33  1  0  0  0  0
 16 34  1  0  0  0  0
 16 35  1  0  0  0  0
 18 36  1  0  0  0  0
 21 37  1  0  0  0  0
 21 38  1  0  0  0  0
 21 39  1  0  0  0  0
 22 40  1  0  0  0  0
 23 41  1  0  0  0  0
 24 42  1  0  0  0  0
M  END
> <i_m_stars>
0

> <r_user_dG.exp>
-9.083236

$$$$
18632-1
  -OEChem-05192314073D
 Structure written by MMmdl.
 42 43  0     1  0  0  0  0  0999 V2000
   22.8348   10.6133   29.0685 C   0  0  0  0  0  0  0  0  0  0  0  0
   23.2564   10.8543   30.5245 C   0  0  0  0  0  0  0  0  0  0  0  0
   22.1208   11.1384   31.3461 O   0  0  0  0  0  0  0  0  0  0  0  0
   21.3028   10.1143   31.7943 C   0  0  0  0  0  0  0  0  0  0  0  0
   21.6562    8.8449   31.4620 N   0  0  0  0  0  0  0  0  0  0  0  0
   20.8562    7.8405   31.8366 C   0  0  0  0  0  0  0  0  0  0  0  0
   19.7056    8.0208   32.5847 C   0  0  0  0  0  0  0  0  0  0  0  0
   19.3552    9.3103   32.9399 C   0  0  0  0  0  0  0  0  0  0  0  0
   18.1854    9.4218   33.6784 N   0  0  0  0  0  0  0  0  0  0  0  0
   20.1562   10.3962   32.5462 C   0  0  3  0  0  0  0  0  0  0  0  0
   19.8394   11.7813   32.8754 C   0  0  0  0  0  0  0  0  0  0  0  0
   19.5962   12.8840   33.1326 N   0  0  0  0  0  0  0  0  0  0  0  0
   21.3594    6.6315   31.4180 N   0  0  0  0  0  0  0  0  0  0  0  0
   20.7263    5.4857   31.1542 C   0  0  0  0  0  0  0  0  0  0  0  0
   19.5060    5.3615   31.2301 O   0  0  0  0  0  0  0  0  0  0  0  0
   21.5718    4.2763   30.7231 C   0  0  0  0  0  0  0  0  0  0  0  0
   23.0667    4.5575   30.5721 C   0  0  0  0  0  0  0  0  0  0  0  0
   23.9662    4.1691   31.5713 C   0  0  0  0  0  0  0  0  0  0  0  0
   25.3371    4.3576   31.4206 C   0  0  0  0  0  0  0  0  0  0  0  0
   26.1329    3.8953   32.4456 O   0  0  0  0  0  0  0  0  0  0  0  0
   27.5411    4.0836   32.3620 C   0  0  0  0  0  0  0  0  0  0  0  0
   25.8096    4.9784   30.2546 C   0  0  0  0  0  0  0  0  0  0  0  0
   24.9199    5.3917   29.2621 C   0  0  0  0  0  0  0  0  0  0  0  0
   23.5514    5.1788   29.4197 C   0  0  0  0  0  0  0  0  0  0  0  0
   23.7250   10.3975   28.4594 H   0  0  0  0  0  0  0  0  0  0  0  0
   22.1439    9.7585   29.0237 H   0  0  0  0  0  0  0  0  0  0  0  0
   22.3329   11.5112   28.6788 H   0  0  0  0  0  0  0  0  0  0  0  0
   23.7609    9.9546   30.9066 H   0  0  0  0  0  0  0  0  0  0  0  0
   23.9499   11.7073   30.5618 H   0  0  0  0  0  0  0  0  0  0  0  0
   19.0989    7.1784   32.8824 H   0  0  0  0  0  0  0  0  0  0  0  0
   17.9729   10.3730   33.9022 H   0  0  0  0  0  0  0  0  0  0  0  0
   20.7394   10.3061   33.4745 H   0  0  0  0  0  0  0  0  0  0  0  0
   22.3511    6.6063   31.2918 H   0  0  0  0  0  0  0  0  0  0  0  0
   21.4473    3.4858   31.4778 H   0  0  0  0  0  0  0  0  0  0  0  0
   21.1912    3.9213   29.7540 H   0  0  0  0  0  0  0  0  0  0  0  0
   23.5899    3.7148   32.4759 H   0  0  0  0  0  0  0  0  0  0  0  0
   28.0220    3.6589   33.2555 H   0  0  0  0  0  0  0  0  0  0  0  0
   27.9257    3.5786   31.4636 H   0  0  0  0  0  0  0  0  0  0  0  0
   27.7642    5.1591   32.3019 H   0  0  0  0  0  0  0  0  0  0  0  0
   26.8698    5.1376   30.1241 H   0  0  0  0  0  0  0  0  0  0  0  0
   25.2918    5.8766   28.3716 H   0  0  0  0  0  0  0  0  0  0  0  0
   22.8646    5.4952   28.6486 H   0  0  0  0  0  0  0  0  0  0  0  0
  1  2  1  0  0  0  0
  2  3  1  0  0  0  0
  3  4  1  0  0  0  0
  4 10  1  0  0  0  0
  4  5  2  0  0  0  0
  5  6  1  0  0  0  0
  6  7  2  0  0  0  0
  6 13  1  0  0  0  0
  7  8  1  0  0  0  0
  8  9  2  0  0  0  0
  8 10  1  0  0  0  0
 10 11  1  0  0  0  0
 11 12  3  0  0  0  0
 13 14  1  0  0  0  0
 14 15  2  0  0  0  0
 14 16  1  0  0  0  0
 16 17  1  0  0  0  0
 17 24  2  0  0  0  0
 17 18  1  0  0  0  0
 18 19  2  0  0  0  0
 19 20  1  0  0  0  0
 19 22  1  0  0  0  0
 20 21  1  0  0  0  0
 22 23  2  0  0  0  0
 23 24  1  0  0  0  0
  1 25  1  0  0  0  0
  1 26  1  0  0  0  0
  1 27  1  0  0  0  0
  2 28  1  0  0  0  0
  2 29  1  0  0  0  0
  7 30  1  0  0  0  0
  9 31  1  0  0  0  0
 10 32  1  0  0  0  0
 13 33  1  0  0  0  0
 16 34  1  0  0  0  0
 16 35  1  0  0  0  0
 18 36  1  0  0  0  0
 21 37  1  0  0  0  0
 21 38  1  0  0  0  0
 21 39  1  0  0  0  0
 22 40  1  0  0  0  0
 23 41  1  0  0  0  0
 24 42  1  0  0  0  0
M  END
> <i_m_stars>
0

> <r_user_dG.exp>
-9.083236

$$$$
18632-1
  -OEChem-05192314073D
 Structure written by MMmdl.
 42 43  0     0  0  0  0  0  0999 V2000
   22.8348   10.6133   29.0685 C   0  0  0  0  0  0  0  0  0  0  0  0
   23.2564   10.8543   30.5245 C   0  0  0  0  0  0  0  0  0  0  0  0
   22.1208   11.1384   31.3461 O   0  0  0  0  0  0  0  0  0  0  0  0
   21.3028   10.1143   31.7943 C   0  0  0  0  0  0  0  0  0  0  0  0
   21.6562    8.8449   31.4620 N   0  0  0  0  0  0  0  0  0  0  0  0
   20.8562    7.8405   31.8366 C   0  0  0  0  0  0  0  0  0  0  0  0
   19.7056    8.0208   32.5847 C   0  0  0  0  0  0  0  0  0  0  0  0
   19.3552    9.3103   32.9399 C   0  0  0  0  0  0  0  0  0  0  0  0
   18.1854    9.4218   33.6784 N   0  0  0  0  0  0  0  0  0  0  0  0
   20.1562   10.3962   32.5462 C   0  0  0  0  0  0  0  0  0  0  0  0
   19.8394   11.7813   32.8754 C   0  0  0  0  0  0  0  0  0  0  0  0
   19.5962   12.8840   33.1326 N   0  0  0  0  0  0  0  0  0  0  0  0
   21.3594    6.6315   31.4180 N   0  0  0  0  0  0  0  0  0  0  0  0
   20.7263    5.4857   31.1542 C   0  0  0  0  0  0  0  0  0  0  0  0
   19.5060    5.3615   31.2301 O   0  0  0  0  0  0  0  0  0  0  0  0
   21.5718    4.2763   30.7231 C   0  0  0  0  0  0  0  0  0  0  0  0
   23.0667    4.5575   30.5721 C   0  0  0  0  0  0  0  0  0  0  0  0
   23.9662    4.1691   31.5713 C   0  0  0  0  0  0  0  0  0  0  0  0
   25.3371    4.3576   31.4206 C   0  0  0  0  0  0  0  0  0  0  0  0
   26.1329    3.8953   32.4456 O   0  0  0  0  0  0  0  0  0  0  0  0
   27.5411    4.0836   32.3620 C   0  0  0  0  0  0  0  0  0  0  0  0
   25.8096    4.9784   30.2546 C   0  0  0  0  0  0  0  0  0  0  0  0
   24.9199    5.3917   29.2621 C   0  0  0  0  0  0  0  0  0  0  0  0
   23.5514    5.1788   29.4197 C   0  0  0  0  0  0  0  0  0  0  0  0
   23.7250   10.3975   28.4594 H   0  0  0  0  0  0  0  0  0  0  0  0
   22.1439    9.7585   29.0237 H   0  0  0  0  0  0  0  0  0  0  0  0
   22.3329   11.5112   28.6788 H   0  0  0  0  0  0  0  0  0  0  0  0
   23.7609    9.9546   30.9066 H   0  0  0  0  0  0  0  0  0  0  0  0
   23.9499   11.7073   30.5618 H   0  0  0  0  0  0  0  0  0  0  0  0
   18.8697    7.6034   32.0041 H   0  0  0  0  0  0  0  0  0  0  0  0
   19.8280    7.4474   33.5154 H   0  0  0  0  0  0  0  0  0  0  0  0
   17.9729   10.3730   33.9022 H   0  0  0  0  0  0  0  0  0  0  0  0
   22.3511    6.6063   31.2918 H   0  0  0  0  0  0  0  0  0  0  0  0
   21.4473    3.4858   31.4778 H   0  0  0  0  0  0  0  0  0  0  0  0
   21.1912    3.9213   29.7540 H   0  0  0  0  0  0  0  0  0  0  0  0
   23.5899    3.7148   32.4759 H   0  0  0  0  0  0  0  0  0  0  0  0
   28.0220    3.6589   33.2555 H   0  0  0  0  0  0  0  0  0  0  0  0
   27.9257    3.5786   31.4636 H   0  0  0  0  0  0  0  0  0  0  0  0
   27.7642    5.1591   32.3019 H   0  0  0  0  0  0  0  0  0  0  0  0
   26.8698    5.1376   30.1241 H   0  0  0  0  0  0  0  0  0  0  0  0
   25.2918    5.8766   28.3716 H   0  0  0  0  0  0  0  0  0  0  0  0
   22.8646    5.4952   28.6486 H   0  0  0  0  0  0  0  0  0  0  0  0
  1  2  1  0  0  0  0
  2  3  1  0  0  0  0
  3  4  1  0  0  0  0
  4 10  2  0  0  0  0
  4  5  1  0  0  0  0
  5  6  2  0  0  0  0
  6  7  1  0  0  0  0
  6 13  1  0  0  0  0
  7  8  1  0  0  0  0
  8  9  2  0  0  0  0
  8 10  1  0  0  0  0
 10 11  1  0  0  0  0
 11 12  3  0  0  0  0
 13 14  1  0  0  0  0
 14 15  2  0  0  0  0
 14 16  1  0  0  0  0
 16 17  1  0  0  0  0
 17 24  2  0  0  0  0
 17 18  1  0  0  0  0
 18 19  2  0  0  0  0
 19 20  1  0  0  0  0
 19 22  1  0  0  0  0
 20 21  1  0  0  0  0
 22 23  2  0  0  0  0
 23 24  1  0  0  0  0
  1 25  1  0  0  0  0
  1 26  1  0  0  0  0
  1 27  1  0  0  0  0
  2 28  1  0  0  0  0
  2 29  1  0  0  0  0
  7 30  1  0  0  0  0
  7 31  1  0  0  0  0
  9 32  1  0  0  0  0
 13 33  1  0  0  0  0
 16 34  1  0  0  0  0
 16 35  1  0  0  0  0
 18 36  1  0  0  0  0
 21 37  1  0  0  0  0
 21 38  1  0  0  0  0
 21 39  1  0  0  0  0
 22 40  1  0  0  0  0
 23 41  1  0  0  0  0
 24 42  1  0  0  0  0
M  END
> <i_m_stars>
0

> <r_user_dG.exp>
-9.083236

$$$$
18632-1
  -OEChem-05192314073D
 Structure written by MMmdl.
 42 43  0     1  0  0  0  0  0999 V2000
   22.8348   10.6133   29.0685 C   0  0  0  0  0  0  0  0  0  0  0  0
   23.2564   10.8543   30.5245 C   0  0  0  0  0  0  0  0  0  0  0  0
   22.1208   11.1384   31.3461 O   0  0  0  0  0  0  0  0  0  0  0  0
   21.3028   10.1143   31.7943 C   0  0  0  0  0  0  0  0  0  0  0  0
   21.6562    8.8449   31.4620 N   0  0  0  0  0  0  0  0  0  0  0  0
   20.8562    7.8405   31.8366 C   0  0  0  0  0  0  0  0  0  0  0  0
   19.7056    8.0208   32.5847 C   0  0  0  0  0  0  0  0  0  0  0  0
   19.3552    9.3103   32.9399 C   0  0  0  0  0  0  0  0  0  0  0  0
   18.1854    9.4218   33.6784 N   0  0  0  0  0  0  0  0  0  0  0  0
   20.1562   10.3962   32.5462 C   0  0  3  0  0  0  0  0  0  0  0  0
   19.8394   11.7813   32.8754 C   0  0  0  0  0  0  0  0  0  0  0  0
   19.5962   12.8840   33.1326 N   0  0  0  0  0  0  0  0  0  0  0  0
   21.3594    6.6315   31.4180 N   0  0  0  0  0  0  0  0  0  0  0  0
   20.7263    5.4857   31.1542 C   0  0  0  0  0  0  0  0  0  0  0  0
   19.5060    5.3615   31.2301 O   0  0  0  0  0  0  0  0  0  0  0  0
   21.5718    4.2763   30.7231 C   0  0  0  0  0  0  0  0  0  0  0  0
   23.0667    4.5575   30.5721 C   0  0  0  0  0  0  0  0  0  0  0  0
   23.9662    4.1691   31.5713 C   0  0  0  0  0  0  0  0  0  0  0  0
   25.3371    4.3576   31.4206 C   0  0  0  0  0  0  0  0  0  0  0  0
   26.1329    3.8953   32.4456 O   0  0  0  0  0  0  0  0  0  0  0  0
   27.5411    4.0836   32.3620 C   0  0  0  0  0  0  0  0  0  0  0  0
   25.8096    4.9784   30.2546 C   0  0  0  0  0  0  0  0  0  0  0  0
   24.9199    5.3917   29.2621 C   0  0  0  0  0  0  0  0  0  0  0  0
   23.5514    5.1788   29.4197 C   0  0  0  0  0  0  0  0  0  0  0  0
   23.7250   10.3975   28.4594 H   0  0  0  0  0  0  0  0  0  0  0  0
   22.1439    9.7585   29.0237 H   0  0  0  0  0  0  0  0  0  0  0  0
   22.3329   11.5112   28.6788 H   0  0  0  0  0  0  0  0  0  0  0  0
   23.7609    9.9546   30.9066 H   0  0  0  0  0  0  0  0  0  0  0  0
   23.9499   11.7073   30.5618 H   0  0  0  0  0  0  0  0  0  0  0  0
   19.0989    7.1784   32.8824 H   0  0  0  0  0  0  0  0  0  0  0  0
   18.0134   10.3844   33.8879 H   0  0  0  0  0  0  0  0  0  0  0  0
   17.4208    9.0542   33.1490 H   0  0  0  0  0  0  0  0  0  0  0  0
   20.7394   10.3061   33.4745 H   0  0  0  0  0  0  0  0  0  0  0  0
   21.4473    3.4858   31.4778 H   0  0  0  0  0  0  0  0  0  0  0  0
   21.1912    3.9213   29.7540 H   0  0  0  0  0  0  0  0  0  0  0  0
   23.5899    3.7148   32.4759 H   0  0  0  0  0  0  0  0  0  0  0  0
   28.0220    3.6589   33.2555 H   0  0  0  0  0  0  0  0  0  0  0  0
   27.9257    3.5786   31.4636 H   0  0  0  0  0  0  0  0  0  0  0  0
   27.7642    5.1591   32.3019 H   0  0  0  0  0  0  0  0  0  0  0  0
   26.8698    5.1376   30.1241 H   0  0  0  0  0  0  0  0  0  0  0  0
   25.2918    5.8766   28.3716 H   0  0  0  0  0  0  0  0  0  0  0  0
   22.8646    5.4952   28.6486 H   0  0  0  0  0  0  0  0  0  0  0  0
  1  2  1  0  0  0  0
  2  3  1  0  0  0  0
  3  4  1  0  0  0  0
  4 10  1  0  0  0  0
  4  5  2  0  0  0  0
  5  6  1  0  0  0  0
  6  7  1  0  0  0  0
  6 13  2  0  0  0  0
  7  8  2  0  0  0  0
  8  9  1  0  0  0  0
  8 10  1  0  0  0  0
 10 11  1  0  0  0  0
 11 12  3  0  0  0  0
 13 14  1  0  0  0  0
 14 15  2  0  0  0  0
 14 16  1  0  0  0  0
 16 17  1  0  0  0  0
 17 24  2  0  0  0  0
 17 18  1  0  0  0  0
 18 19  2  0  0  0  0
 19 20  1  0  0  0  0
 19 22  1  0  0  0  0
 20 21  1  0  0  0  0
 22 23  2  0  0  0  0
 23 24  1  0  0  0  0
  1 25  1  0  0  0  0
  1 26  1  0  0  0  0
  1 27  1  0  0  0  0
  2 28  1  0  0  0  0
  2 29  1  0  0  0  0
  7 30  1  0  0  0  0
  9 31  1  0  0  0  0
  9 32  1  0  0  0  0
 10 33  1  0  0  0  0
 16 34  1  0  0  0  0
 16 35  1  0  0  0  0
 18 36  1  0  0  0  0
 21 37  1  0  0  0  0
 21 38  1  0  0  0  0
 21 39  1  0  0  0  0
 22 40  1  0  0  0  0
 23 41  1  0  0  0  0
 24 42  1  0  0  0  0
M  END
> <i_m_stars>
0

> <r_user_dG.exp>
-9.083236

$$$$
18632-1
  -OEChem-05192314073D
 Structure written by MMmdl.
 42 43  0     0  0  0  0  0  0999 V2000
   22.8348   10.6133   29.0685 C   0  0  0  0  0  0  0  0  0  0  0  0
   23.2564   10.8543   30.5245 C   0  0  0  0  0  0  0  0  0  0  0  0
   22.1208   11.1384   31.3461 O   0  0  0  0  0  0  0  0  0  0  0  0
   21.3028   10.1143   31.7943 C   0  0  0  0  0  0  0  0  0  0  0  0
   21.6562    8.8449   31.4620 N   0  0  0  0  0  0  0  0  0  0  0  0
   20.8562    7.8405   31.8366 C   0  0  0  0  0  0  0  0  0  0  0  0
   19.7056    8.0208   32.5847 C   0  0  0  0  0  0  0  0  0  0  0  0
   19.3552    9.3103   32.9399 C   0  0  0  0  0  0  0  0  0  0  0  0
   18.1854    9.4218   33.6784 N   0  0  0  0  0  0  0  0  0  0  0  0
   20.1562   10.3962   32.5462 C   0  0  0  0  0  0  0  0  0  0  0  0
   19.8394   11.7813   32.8754 C   0  0  0  0  0  0  0  0  0  0  0  0
   19.5962   12.8840   33.1326 N   0  0  0  0  0  0  0  0  0  0  0  0
   21.3594    6.6315   31.4180 N   0  0  0  0  0  0  0  0  0  0  0  0
   20.7263    5.4857   31.1542 C   0  0  0  0  0  0  0  0  0  0  0  0
   19.5060    5.3615   31.2301 O   0  0  0  0  0  0  0  0  0  0  0  0
   21.5718    4.2763   30.7231 C   0  0  0  0  0  0  0  0  0  0  0  0
   23.0667    4.5575   30.5721 C   0  0  0  0  0  0  0  0  0  0  0  0
   23.9662    4.1691   31.5713 C   0  0  0  0  0  0  0  0  0  0  0  0
   25.3371    4.3576   31.4206 C   0  0  0  0  0  0  0  0  0  0  0  0
   26.1329    3.8953   32.4456 O   0  0  0  0  0  0  0  0  0  0  0  0
   27.5411    4.0836   32.3620 C   0  0  0  0  0  0  0  0  0  0  0  0
   25.8096    4.9784   30.2546 C   0  0  0  0  0  0  0  0  0  0  0  0
   24.9199    5.3917   29.2621 C   0  0  0  0  0  0  0  0  0  0  0  0
   23.5514    5.1788   29.4197 C   0  0  0  0  0  0  0  0  0  0  0  0
   23.7250   10.3975   28.4594 H   0  0  0  0  0  0  0  0  0  0  0  0
   22.1439    9.7585   29.0237 H   0  0  0  0  0  0  0  0  0  0  0  0
   22.3329   11.5112   28.6788 H   0  0  0  0  0  0  0  0  0  0  0  0
   23.7609    9.9546   30.9066 H   0  0  0  0  0  0  0  0  0  0  0  0
   23.9499   11.7073   30.5618 H   0  0  0  0  0  0  0  0  0  0  0  0
   18.8697    7.6034   32.0041 H   0  0  0  0  0  0  0  0  0  0  0  0
   19.8280    7.4474   33.5154 H   0  0  0  0  0  0  0  0  0  0  0  0
   18.0134   10.3844   33.8879 H   0  0  0  0  0  0  0  0  0  0  0  0
   17.4208    9.0542   33.1490 H   0  0  0  0  0  0  0  0  0  0  0  0
   21.4473    3.4858   31.4778 H   0  0  0  0  0  0  0  0  0  0  0  0
   21.1912    3.9213   29.7540 H   0  0  0  0  0  0  0  0  0  0  0  0
   23.5899    3.7148   32.4759 H   0  0  0  0  0  0  0  0  0  0  0  0
   28.0220    3.6589   33.2555 H   0  0  0  0  0  0  0  0  0  0  0  0
   27.9257    3.5786   31.4636 H   0  0  0  0  0  0  0  0  0  0  0  0
   27.7642    5.1591   32.3019 H   0  0  0  0  0  0  0  0  0  0  0  0
   26.8698    5.1376   30.1241 H   0  0  0  0  0  0  0  0  0  0  0  0
   25.2918    5.8766   28.3716 H   0  0  0  0  0  0  0  0  0  0  0  0
   22.8646    5.4952   28.6486 H   0  0  0  0  0  0  0  0  0  0  0  0
  1  2  1  0  0  0  0
  2  3  1  0  0  0  0
  3  4  1  0  0  0  0
  4 10  1  0  0  0  0
  4  5  2  0  0  0  0
  5  6  1  0  0  0  0
  6  7  1  0  0  0  0
  6 13  2  0  0  0  0
  7  8  1  0  0  0  0
  8  9  1  0  0  0  0
  8 10  2  0  0  0  0
 10 11  1  0  0  0  0
 11 12  3  0  0  0  0
 13 14  1  0  0  0  0
 14 15  2  0  0  0  0
 14 16  1  0  0  0  0
 16 17  1  0  0  0  0
 17 24  2  0  0  0  0
 17 18  1  0  0  0  0
 18 19  2  0  0  0  0
 19 20  1  0  0  0  0
 19 22  1  0  0  0  0
 20 21  1  0  0  0  0
 22 23  2  0  0  0  0
 23 24  1  0  0  0  0
  1 25  1  0  0  0  0
  1 26  1  0  0  0  0
  1 27  1  0  0  0  0
  2 28  1  0  0  0  0
  2 29  1  0  0  0  0
  7 30  1  0  0  0  0
  7 31  1  0  0  0  0
  9 32  1  0  0  0  0
  9 33  1  0  0  0  0
 16 34  1  0  0  0  0
 16 35  1  0  0  0  0
 18 36  1  0  0  0  0
 21 37  1  0  0  0  0
 21 38  1  0  0  0  0
 21 39  1  0  0  0  0
 22 40  1  0  0  0  0
 23 41  1  0  0  0  0
 24 42  1  0  0  0  0
M  END
> <i_m_stars>
0

> <r_user_dG.exp>
-9.083236

$$$$
18632-1
  -OEChem-05192314073D
 Structure written by MMmdl.
 42 43  0     0  0  0  0  0  0999 V2000
   22.8348   10.6133   29.0685 C   0  0  0  0  0  0  0  0  0  0  0  0
   23.2564   10.8543   30.5245 C   0  0  0  0  0  0  0  0  0  0  0  0
   22.1208   11.1384   31.3461 O   0  0  0  0  0  0  0  0  0  0  0  0
   21.3028   10.1143   31.7943 C   0  0  0  0  0  0  0  0  0  0  0  0
   21.6562    8.8449   31.4620 N   0  0  0  0  0  0  0  0  0  0  0  0
   20.8562    7.8405   31.8366 C   0  0  0  0  0  0  0  0  0  0  0  0
   19.7056    8.0208   32.5847 C   0  0  0  0  0  0  0  0  0  0  0  0
   19.3552    9.3103   32.9399 C   0  0  0  0  0  0  0  0  0  0  0  0
   18.1854    9.4218   33.6784 N   0  0  0  0  0  0  0  0  0  0  0  0
   20.1562   10.3962   32.5462 C   0  0  0  0  0  0  0  0  0  0  0  0
   19.8394   11.7813   32.8754 C   0  0  0  0  0  0  0  0  0  0  0  0
   19.5962   12.8840   33.1326 N   0  0  0  0  0  0  0  0  0  0  0  0
   21.3594    6.6315   31.4180 N   0  0  0  0  0  0  0  0  0  0  0  0
   20.7263    5.4857   31.1542 C   0  0  0  0  0  0  0  0  0  0  0  0
   19.5060    5.3615   31.2301 O   0  0  0  0  0  0  0  0  0  0  0  0
   21.5718    4.2763   30.7231 C   0  0  0  0  0  0  0  0  0  0  0  0
   23.0667    4.5575   30.5721 C   0  0  0  0  0  0  0  0  0  0  0  0
   23.9662    4.1691   31.5713 C   0  0  0  0  0  0  0  0  0  0  0  0
   25.3371    4.3576   31.4206 C   0  0  0  0  0  0  0  0  0  0  0  0
   26.1329    3.8953   32.4456 O   0  0  0  0  0  0  0  0  0  0  0  0
   27.5411    4.0836   32.3620 C   0  0  0  0  0  0  0  0  0  0  0  0
   25.8096    4.9784   30.2546 C   0  0  0  0  0  0  0  0  0  0  0  0
   24.9199    5.3917   29.2621 C   0  0  0  0  0  0  0  0  0  0  0  0
   23.5514    5.1788   29.4197 C   0  0  0  0  0  0  0  0  0  0  0  0
   23.7250   10.3975   28.4594 H   0  0  0  0  0  0  0  0  0  0  0  0
   22.1439    9.7585   29.0237 H   0  0  0  0  0  0  0  0  0  0  0  0
   22.3329   11.5112   28.6788 H   0  0  0  0  0  0  0  0  0  0  0  0
   23.7609    9.9546   30.9066 H   0  0  0  0  0  0  0  0  0  0  0  0
   23.9499   11.7073   30.5618 H   0  0  0  0  0  0  0  0  0  0  0  0
   22.4956    8.6657   30.9489 H   0  0  0  0  0  0  0  0  0  0  0  0
   18.8697    7.6034   32.0041 H   0  0  0  0  0  0  0  0  0  0  0  0
   19.8280    7.4474   33.5154 H   0  0  0  0  0  0  0  0  0  0  0  0
   17.9729   10.3730   33.9022 H   0  0  0  0  0  0  0  0  0  0  0  0
   21.4473    3.4858   31.4778 H   0  0  0  0  0  0  0  0  0  0  0  0
   21.1912    3.9213   29.7540 H   0  0  0  0  0  0  0  0  0  0  0  0
   23.5899    3.7148   32.4759 H   0  0  0  0  0  0  0  0  0  0  0  0
   28.0220    3.6589   33.2555 H   0  0  0  0  0  0  0  0  0  0  0  0
   27.9257    3.5786   31.4636 H   0  0  0  0  0  0  0  0  0  0  0  0
   27.7642    5.1591   32.3019 H   0  0  0  0  0  0  0  0  0  0  0  0
   26.8698    5.1376   30.1241 H   0  0  0  0  0  0  0  0  0  0  0  0
   25.2918    5.8766   28.3716 H   0  0  0  0  0  0  0  0  0  0  0  0
   22.8646    5.4952   28.6486 H   0  0  0  0  0  0  0  0  0  0  0  0
  1  2  1  0  0  0  0
  2  3  1  0  0  0  0
  3  4  1  0  0  0  0
  4 10  2  0  0  0  0
  4  5  1  0  0  0  0
  5  6  1  0  0  0  0
  6  7  1  0  0  0  0
  6 13  2  0  0  0  0
  7  8  1  0  0  0  0
  8  9  2  0  0  0  0
  8 10  1  0  0  0  0
 10 11  1  0  0  0  0
 11 12  3  0  0  0  0
 13 14  1  0  0  0  0
 14 15  2  0  0  0  0
 14 16  1  0  0  0  0
 16 17  1  0  0  0  0
 17 24  2  0  0  0  0
 17 18  1  0  0  0  0
 18 19  2  0  0  0  0
 19 20  1  0  0  0  0
 19 22  1  0  0  0  0
 20 21  1  0  0  0  0
 22 23  2  0  0  0  0
 23 24  1  0  0  0  0
  1 25  1  0  0  0  0
  1 26  1  0  0  0  0
  1 27  1  0  0  0  0
  2 28  1  0  0  0  0
  2 29  1  0  0  0  0
  5 30  1  0  0  0  0
  7 31  1  0  0  0  0
  7 32  1  0  0  0  0
  9 33  1  0  0  0  0
 16 34  1  0  0  0  0
 16 35  1  0  0  0  0
 18 36  1  0  0  0  0
 21 37  1  0  0  0  0
 21 38  1  0  0  0  0
 21 39  1  0  0  0  0
 22 40  1  0  0  0  0
 23 41  1  0  0  0  0
 24 42  1  0  0  0  0
M  END
> <i_m_stars>
0

> <r_user_dG.exp>
-9.083236

$$$$
18632-1
  -OEChem-05192314073D
 Structure written by MMmdl.
 42 43  0     1  0  0  0  0  0999 V2000
   22.8348   10.6133   29.0685 C   0  0  0  0  0  0  0  0  0  0  0  0
   23.2564   10.8543   30.5245 C   0  0  0  0  0  0  0  0  0  0  0  0
   22.1208   11.1384   31.3461 O   0  0  0  0  0  0  0  0  0  0  0  0
   21.3028   10.1143   31.7943 C   0  0  0  0  0  0  0  0  0  0  0  0
   21.6562    8.8449   31.4620 N   0  0  0  0  0  0  0  0  0  0  0  0
   20.8562    7.8405   31.8366 C   0  0  0  0  0  0  0  0  0  0  0  0
   19.7056    8.0208   32.5847 C   0  0  0  0  0  0  0  0  0  0  0  0
   19.3552    9.3103   32.9399 C   0  0  0  0  0  0  0  0  0  0  0  0
   18.1854    9.4218   33.6784 N   0  0  0  0  0  0  0  0  0  0  0  0
   20.1562   10.3962   32.5462 C   0  0  3  0  0  0  0  0  0  0  0  0
   19.8394   11.7813   32.8754 C   0  0  0  0  0  0  0  0  0  0  0  0
   19.5962   12.8840   33.1326 N   0  0  0  0  0  0  0  0  0  0  0  0
   21.3594    6.6315   31.4180 N   0  0  0  0  0  0  0  0  0  0  0  0
   20.7263    5.4857   31.1542 C   0  0  0  0  0  0  0  0  0  0  0  0
   19.5060    5.3615   31.2301 O   0  0  0  0  0  0  0  0  0  0  0  0
   21.5718    4.2763   30.7231 C   0  0  0  0  0  0  0  0  0  0  0  0
   23.0667    4.5575   30.5721 C   0  0  0  0  0  0  0  0  0  0  0  0
   23.9662    4.1691   31.5713 C   0  0  0  0  0  0  0  0  0  0  0  0
   25.3371    4.3576   31.4206 C   0  0  0  0  0  0  0  0  0  0  0  0
   26.1329    3.8953   32.4456 O   0  0  0  0  0  0  0  0  0  0  0  0
   27.5411    4.0836   32.3620 C   0  0  0  0  0  0  0  0  0  0  0  0
   25.8096    4.9784   30.2546 C   0  0  0  0  0  0  0  0  0  0  0  0
   24.9199    5.3917   29.2621 C   0  0  0  0  0  0  0  0  0  0  0  0
   23.5514    5.1788   29.4197 C   0  0  0  0  0  0  0  0  0  0  0  0
   23.7250   10.3975   28.4594 H   0  0  0  0  0  0  0  0  0  0  0  0
   22.1439    9.7585   29.0237 H   0  0  0  0  0  0  0  0  0  0  0  0
   22.3329   11.5112   28.6788 H   0  0  0  0  0  0  0  0  0  0  0  0
   23.7609    9.9546   30.9066 H   0  0  0  0  0  0  0  0  0  0  0  0
   23.9499   11.7073   30.5618 H   0  0  0  0  0  0  0  0  0  0  0  0
   19.0989    7.1784   32.8824 H   0  0  0  0  0  0  0  0  0  0  0  0
   17.9729   10.3730   33.9022 H   0  0  0  0  0  0  0  0  0  0  0  0
   20.7394   10.3061   33.4745 H   0  0  0  0  0  0  0  0  0  0  0  0
   19.2631    4.4717   31.0027 H   0  0  0  0  0  0  0  0  0  0  0  0
   21.4473    3.4858   31.4778 H   0  0  0  0  0  0  0  0  0  0  0  0
   21.1912    3.9213   29.7540 H   0  0  0  0  0  0  0  0  0  0  0  0
   23.5899    3.7148   32.4759 H   0  0  0  0  0  0  0  0  0  0  0  0
   28.0220    3.6589   33.2555 H   0  0  0  0  0  0  0  0  0  0  0  0
   27.9257    3.5786   31.4636 H   0  0  0  0  0  0  0  0  0  0  0  0
   27.7642    5.1591   32.3019 H   0  0  0  0  0  0  0  0  0  0  0  0
   26.8698    5.1376   30.1241 H   0  0  0  0  0  0  0  0  0  0  0  0
   25.2918    5.8766   28.3716 H   0  0  0  0  0  0  0  0  0  0  0  0
   22.8646    5.4952   28.6486 H   0  0  0  0  0  0  0  0  0  0  0  0
  1  2  1  0  0  0  0
  2  3  1  0  0  0  0
  3  4  1  0  0  0  0
  4 10  1  0  0  0  0
  4  5  2  0  0  0  0
  5  6  1  0  0  0  0
  6  7  2  0  0  0  0
  6 13  1  0  0  0  0
  7  8  1  0  0  0  0
  8  9  2  0  0  0  0
  8 10  1  0  0  0  0
 10 11  1  0  0  0  0
 11 12  3  0  0  0  0
 13 14  2  0  0  0  0
 14 15  1  0  0  0  0
 14 16  1  0  0  0  0
 16 17  1  0  0  0  0
 17 24  2  0  0  0  0
 17 18  1  0  0  0  0
 18 19  2  0  0  0  0
 19 20  1  0  0  0  0
 19 22  1  0  0  0  0
 20 21  1  0  0  0  0
 22 23  2  0  0  0  0
 23 24  1  0  0  0  0
  1 25  1  0  0  0  0
  1 26  1  0  0  0  0
  1 27  1  0  0  0  0
  2 28  1  0  0  0  0
  2 29  1  0  0  0  0
  7 30  1  0  0  0  0
  9 31  1  0  0  0  0
 10 32  1  0  0  0  0
 15 33  1  0  0  0  0
 16 34  1  0  0  0  0
 16 35  1  0  0  0  0
 18 36  1  0  0  0  0
 21 37  1  0  0  0  0
 21 38  1  0  0  0  0
 21 39  1  0  0  0  0
 22 40  1  0  0  0  0
 23 41  1  0  0  0  0
 24 42  1  0  0  0  0
M  END
> <i_m_stars>
0

> <r_user_dG.exp>
-9.083236

$$$$
18632-1
  -OEChem-05192314073D
 Structure written by MMmdl.
 42 43  0     0  0  0  0  0  0999 V2000
   22.8348   10.6133   29.0685 C   0  0  0  0  0  0  0  0  0  0  0  0
   23.2564   10.8543   30.5245 C   0  0  0  0  0  0  0  0  0  0  0  0
   22.1208   11.1384   31.3461 O   0  0  0  0  0  0  0  0  0  0  0  0
   21.3028   10.1143   31.7943 C   0  0  0  0  0  0  0  0  0  0  0  0
   21.6562    8.8449   31.4620 N   0  0  0  0  0  0  0  0  0  0  0  0
   20.8562    7.8405   31.8366 C   0  0  0  0  0  0  0  0  0  0  0  0
   19.7056    8.0208   32.5847 C   0  0  0  0  0  0  0  0  0  0  0  0
   19.3552    9.3103   32.9399 C   0  0  0  0  0  0  0  0  0  0  0  0
   18.1854    9.4218   33.6784 N   0  0  0  0  0  0  0  0  0  0  0  0
   20.1562   10.3962   32.5462 C   0  0  0  0  0  0  0  0  0  0  0  0
   19.8394   11.7813   32.8754 C   0  0  0  0  0  0  0  0  0  0  0  0
   19.5962   12.8840   33.1326 N   0  0  0  0  0  0  0  0  0  0  0  0
   21.3594    6.6315   31.4180 N   0  0  0  0  0  0  0  0  0  0  0  0
   20.7263    5.4857   31.1542 C   0  0  0  0  0  0  0  0  0  0  0  0
   19.5060    5.3615   31.2301 O   0  0  0  0  0  0  0  0  0  0  0  0
   21.5718    4.2763   30.7231 C   0  0  0  0  0  0  0  0  0  0  0  0
   23.0667    4.5575   30.5721 C   0  0  0  0  0  0  0  0  0  0  0  0
   23.9662    4.1691   31.5713 C   0  0  0  0  0  0  0  0  0  0  0  0
   25.3371    4.3576   31.4206 C   0  0  0  0  0  0  0  0  0  0  0  0
   26.1329    3.8953   32.4456 O   0  0  0  0  0  0  0  0  0  0  0  0
   27.5411    4.0836   32.3620 C   0  0  0  0  0  0  0  0  0  0  0  0
   25.8096    4.9784   30.2546 C   0  0  0  0  0  0  0  0  0  0  0  0
   24.9199    5.3917   29.2621 C   0  0  0  0  0  0  0  0  0  0  0  0
   23.5514    5.1788   29.4197 C   0  0  0  0  0  0  0  0  0  0  0  0
   23.7250   10.3975   28.4594 H   0  0  0  0  0  0  0  0  0  0  0  0
   22.1439    9.7585   29.0237 H   0  0  0  0  0  0  0  0  0  0  0  0
   22.3329   11.5112   28.6788 H   0  0  0  0  0  0  0  0  0  0  0  0
   23.7609    9.9546   30.9066 H   0  0  0  0  0  0  0  0  0  0  0  0
   23.9499   11.7073   30.5618 H   0  0  0  0  0  0  0  0  0  0  0  0
   18.8697    7.6034   32.0041 H   0  0  0  0  0  0  0  0  0  0  0  0
   19.8280    7.4474   33.5154 H   0  0  0  0  0  0  0  0  0  0  0  0
   17.9729   10.3730   33.9022 H   0  0  0  0  0  0  0  0  0  0  0  0
   19.2631    4.4717   31.0027 H   0  0  0  0  0  0  0  0  0  0  0  0
   21.4473    3.4858   31.4778 H   0  0  0  0  0  0  0  0  0  0  0  0
   21.1912    3.9213   29.7540 H   0  0  0  0  0  0  0  0  0  0  0  0
   23.5899    3.7148   32.4759 H   0  0  0  0  0  0  0  0  0  0  0  0
   28.0220    3.6589   33.2555 H   0  0  0  0  0  0  0  0  0  0  0  0
   27.9257    3.5786   31.4636 H   0  0  0  0  0  0  0  0  0  0  0  0
   27.7642    5.1591   32.3019 H   0  0  0  0  0  0  0  0  0  0  0  0
   26.8698    5.1376   30.1241 H   0  0  0  0  0  0  0  0  0  0  0  0
   25.2918    5.8766   28.3716 H   0  0  0  0  0  0  0  0  0  0  0  0
   22.8646    5.4952   28.6486 H   0  0  0  0  0  0  0  0  0  0  0  0
  1  2  1  0  0  0  0
  2  3  1  0  0  0  0
  3  4  1  0  0  0  0
  4 10  2  0  0  0  0
  4  5  1  0  0  0  0
  5  6  2  0  0  0  0
  6  7  1  0  0  0  0
  6 13  1  0  0  0  0
  7  8  1  0  0  0  0
  8  9  2  0  0  0  0
  8 10  1  0  0  0  0
 10 11  1  0  0  0  0
 11 12  3  0  0  0  0
 13 14  2  0  0  0  0
 14 15  1  0  0  0  0
 14 16  1  0  0  0  0
 16 17  1  0  0  0  0
 17 24  2  0  0  0  0
 17 18  1  0  0  0  0
 18 19  2  0  0  0  0
 19 20  1  0  0  0  0
 19 22  1  0  0  0  0
 20 21  1  0  0  0  0
 22 23  2  0  0  0  0
 23 24  1  0  0  0  0
  1 25  1  0  0  0  0
  1 26  1  0  0  0  0
  1 27  1  0  0  0  0
  2 28  1  0  0  0  0
  2 29  1  0  0  0  0
  7 30  1  0  0  0  0
  7 31  1  0  0  0  0
  9 32  1  0  0  0  0
 15 33  1  0  0  0  0
 16 34  1  0  0  0  0
 16 35  1  0  0  0  0
 18 36  1  0  0  0  0
 21 37  1  0  0  0  0
 21 38  1  0  0  0  0
 21 39  1  0  0  0  0
 22 40  1  0  0  0  0
 23 41  1  0  0  0  0
 24 42  1  0  0  0  0
M  END
> <i_m_stars>
0

> <r_user_dG.exp>
-9.083236

$$$$
