18624-1
  -OEChem-05192314073D
 Structure written by MMmdl.
 38 39  0     0  0  0  0  0  0999 V2000
   24.0164   12.2539   30.2762 C   0  0  0  0  0  0  0  0  0  0  0  0
   23.2908   10.9314   30.5359 C   0  0  0  0  0  0  0  0  0  0  0  0
   22.1419   11.2134   31.3311 O   0  0  0  0  0  0  0  0  0  0  0  0
   21.3323   10.1743   31.7566 C   0  0  0  0  0  0  0  0  0  0  0  0
   21.6855    8.9139   31.3839 N   0  0  0  0  0  0  0  0  0  0  0  0
   20.8979    7.8953   31.7573 C   0  0  0  0  0  0  0  0  0  0  0  0
   19.7602    8.0588   32.5320 C   0  0  0  0  0  0  0  0  0  0  0  0
   19.4059    9.3393   32.9154 C   0  0  0  0  0  0  0  0  0  0  0  0
   18.2480    9.4343   33.6766 N   0  0  0  0  0  0  0  0  0  0  0  0
   20.1940   10.4357   32.5279 C   0  0  0  0  0  0  0  0  0  0  0  0
   19.8720   11.8131   32.8833 C   0  0  0  0  0  0  0  0  0  0  0  0
   19.6248   12.9098   33.1606 N   0  0  0  0  0  0  0  0  0  0  0  0
   21.3998    6.6892   31.3168 N   0  0  0  0  0  0  0  0  0  0  0  0
   20.7829    5.5176   31.1304 C   0  0  0  0  0  0  0  0  0  0  0  0
   19.5708    5.3642   31.2684 O   0  0  0  0  0  0  0  0  0  0  0  0
   21.6349    4.3090   30.7130 C   0  0  0  0  0  0  0  0  0  0  0  0
   23.1282    4.5971   30.5483 C   0  0  0  0  0  0  0  0  0  0  0  0
   23.5814    5.4159   29.5068 C   0  0  0  0  0  0  0  0  0  0  0  0
   24.9398    5.7006   29.3735 C   0  0  0  0  0  0  0  0  0  0  0  0
   25.8537    5.1673   30.2817 C   0  0  0  0  0  0  0  0  0  0  0  0
   25.4095    4.3457   31.3184 C   0  0  0  0  0  0  0  0  0  0  0  0
   24.0502    4.0609   31.4520 C   0  0  0  0  0  0  0  0  0  0  0  0
   24.9104   12.0679   29.6628 H   0  0  0  0  0  0  0  0  0  0  0  0
   23.3437   12.9427   29.7442 H   0  0  0  0  0  0  0  0  0  0  0  0
   24.3164   12.7018   31.2350 H   0  0  0  0  0  0  0  0  0  0  0  0
   22.9834   10.4796   29.5813 H   0  0  0  0  0  0  0  0  0  0  0  0
   23.9561   10.2386   31.0721 H   0  0  0  0  0  0  0  0  0  0  0  0
   19.1654    7.2076   32.8287 H   0  0  0  0  0  0  0  0  0  0  0  0
   18.0754   10.3928   33.9036 H   0  0  0  0  0  0  0  0  0  0  0  0
   17.4758    9.0711   33.1553 H   0  0  0  0  0  0  0  0  0  0  0  0
   22.3768    6.6908   31.1036 H   0  0  0  0  0  0  0  0  0  0  0  0
   21.5203    3.5293   31.4804 H   0  0  0  0  0  0  0  0  0  0  0  0
   21.2511    3.9365   29.7518 H   0  0  0  0  0  0  0  0  0  0  0  0
   22.8746    5.8294   28.8026 H   0  0  0  0  0  0  0  0  0  0  0  0
   25.2835    6.3330   28.5683 H   0  0  0  0  0  0  0  0  0  0  0  0
   26.9058    5.3903   30.1827 H   0  0  0  0  0  0  0  0  0  0  0  0
   26.1189    3.9296   32.0184 H   0  0  0  0  0  0  0  0  0  0  0  0
   23.7095    3.4247   32.2555 H   0  0  0  0  0  0  0  0  0  0  0  0
  1  2  1  0  0  0  0
  2  3  1  0  0  0  0
  3  4  1  0  0  0  0
  4 10  2  0  0  0  0
  4  5  1  0  0  0  0
  5  6  2  0  0  0  0
  6  7  1  0  0  0  0
  6 13  1  0  0  0  0
  7  8  2  0  0  0  0
  8  9  1  0  0  0  0
  8 10  1  0  0  0  0
 10 11  1  0  0  0  0
 11 12  3  0  0  0  0
 13 14  1  0  0  0  0
 14 15  2  0  0  0  0
 14 16  1  0  0  0  0
 16 17  1  0  0  0  0
 17 22  2  0  0  0  0
 17 18  1  0  0  0  0
 18 19  2  0  0  0  0
 19 20  1  0  0  0  0
 20 21  2  0  0  0  0
 21 22  1  0  0  0  0
  1 23  1  0  0  0  0
  1 24  1  0  0  0  0
  1 25  1  0  0  0  0
  2 26  1  0  0  0  0
  2 27  1  0  0  0  0
  7 28  1  0  0  0  0
  9 29  1  0  0  0  0
  9 30  1  0  0  0  0
 13 31  1  0  0  0  0
 16 32  1  0  0  0  0
 16 33  1  0  0  0  0
 18 34  1  0  0  0  0
 19 35  1  0  0  0  0
 20 36  1  0  0  0  0
 21 37  1  0  0  0  0
 22 38  1  0  0  0  0
M  END
> <i_m_stars>
2

> <r_user_dG.exp>
-8.49337

$$$$
18624-1
  -OEChem-05192314073D
 Structure written by MMmdl.
 38 39  0     0  0  0  0  0  0999 V2000
   24.0164   12.2539   30.2762 C   0  0  0  0  0  0  0  0  0  0  0  0
   23.2908   10.9314   30.5359 C   0  0  0  0  0  0  0  0  0  0  0  0
   22.1419   11.2134   31.3311 O   0  0  0  0  0  0  0  0  0  0  0  0
   21.3323   10.1743   31.7566 C   0  0  0  0  0  0  0  0  0  0  0  0
   21.6855    8.9139   31.3839 N   0  0  0  0  0  0  0  0  0  0  0  0
   20.8979    7.8953   31.7573 C   0  0  0  0  0  0  0  0  0  0  0  0
   19.7602    8.0588   32.5320 C   0  0  0  0  0  0  0  0  0  0  0  0
   19.4059    9.3393   32.9154 C   0  0  0  0  0  0  0  0  0  0  0  0
   18.2480    9.4343   33.6766 N   0  0  0  0  0  0  0  0  0  0  0  0
   20.1940   10.4357   32.5279 C   0  0  0  0  0  0  0  0  0  0  0  0
   19.8720   11.8131   32.8833 C   0  0  0  0  0  0  0  0  0  0  0  0
   19.6248   12.9098   33.1606 N   0  0  0  0  0  0  0  0  0  0  0  0
   21.3998    6.6892   31.3168 N   0  0  0  0  0  0  0  0  0  0  0  0
   20.7829    5.5176   31.1304 C   0  0  0  0  0  0  0  0  0  0  0  0
   19.5708    5.3642   31.2684 O   0  0  0  0  0  0  0  0  0  0  0  0
   21.6349    4.3090   30.7130 C   0  0  0  0  0  0  0  0  0  0  0  0
   23.1282    4.5971   30.5483 C   0  0  0  0  0  0  0  0  0  0  0  0
   23.5814    5.4159   29.5068 C   0  0  0  0  0  0  0  0  0  0  0  0
   24.9398    5.7006   29.3735 C   0  0  0  0  0  0  0  0  0  0  0  0
   25.8537    5.1673   30.2817 C   0  0  0  0  0  0  0  0  0  0  0  0
   25.4095    4.3457   31.3184 C   0  0  0  0  0  0  0  0  0  0  0  0
   24.0502    4.0609   31.4520 C   0  0  0  0  0  0  0  0  0  0  0  0
   24.9104   12.0679   29.6628 H   0  0  0  0  0  0  0  0  0  0  0  0
   23.3437   12.9427   29.7442 H   0  0  0  0  0  0  0  0  0  0  0  0
   24.3164   12.7018   31.2350 H   0  0  0  0  0  0  0  0  0  0  0  0
   22.9834   10.4796   29.5813 H   0  0  0  0  0  0  0  0  0  0  0  0
   23.9561   10.2386   31.0721 H   0  0  0  0  0  0  0  0  0  0  0  0
   19.1654    7.2076   32.8287 H   0  0  0  0  0  0  0  0  0  0  0  0
   18.0754   10.3928   33.9036 H   0  0  0  0  0  0  0  0  0  0  0  0
   17.4758    9.0711   33.1553 H   0  0  0  0  0  0  0  0  0  0  0  0
   19.3432    4.4595   31.0888 H   0  0  0  0  0  0  0  0  0  0  0  0
   21.5203    3.5293   31.4804 H   0  0  0  0  0  0  0  0  0  0  0  0
   21.2511    3.9365   29.7518 H   0  0  0  0  0  0  0  0  0  0  0  0
   22.8746    5.8294   28.8026 H   0  0  0  0  0  0  0  0  0  0  0  0
   25.2835    6.3330   28.5683 H   0  0  0  0  0  0  0  0  0  0  0  0
   26.9058    5.3903   30.1827 H   0  0  0  0  0  0  0  0  0  0  0  0
   26.1189    3.9296   32.0184 H   0  0  0  0  0  0  0  0  0  0  0  0
   23.7095    3.4247   32.2555 H   0  0  0  0  0  0  0  0  0  0  0  0
  1  2  1  0  0  0  0
  2  3  1  0  0  0  0
  3  4  1  0  0  0  0
  4 10  2  0  0  0  0
  4  5  1  0  0  0  0
  5  6  2  0  0  0  0
  6  7  1  0  0  0  0
  6 13  1  0  0  0  0
  7  8  2  0  0  0  0
  8  9  1  0  0  0  0
  8 10  1  0  0  0  0
 10 11  1  0  0  0  0
 11 12  3  0  0  0  0
 13 14  2  0  0  0  0
 14 15  1  0  0  0  0
 14 16  1  0  0  0  0
 16 17  1  0  0  0  0
 17 22  2  0  0  0  0
 17 18  1  0  0  0  0
 18 19  2  0  0  0  0
 19 20  1  0  0  0  0
 20 21  2  0  0  0  0
 21 22  1  0  0  0  0
  1 23  1  0  0  0  0
  1 24  1  0  0  0  0
  1 25  1  0  0  0  0
  2 26  1  0  0  0  0
  2 27  1  0  0  0  0
  7 28  1  0  0  0  0
  9 29  1  0  0  0  0
  9 30  1  0  0  0  0
 15 31  1  0  0  0  0
 16 32  1  0  0  0  0
 16 33  1  0  0  0  0
 18 34  1  0  0  0  0
 19 35  1  0  0  0  0
 20 36  1  0  0  0  0
 21 37  1  0  0  0  0
 22 38  1  0  0  0  0
M  END
> <i_m_stars>
2

> <r_user_dG.exp>
-8.49337

$$$$
18624-1
  -OEChem-05192314073D
 Structure written by MMmdl.
 38 39  0     0  0  0  0  0  0999 V2000
   24.0164   12.2539   30.2762 C   0  0  0  0  0  0  0  0  0  0  0  0
   23.2908   10.9314   30.5359 C   0  0  0  0  0  0  0  0  0  0  0  0
   22.1419   11.2134   31.3311 O   0  0  0  0  0  0  0  0  0  0  0  0
   21.3323   10.1743   31.7566 C   0  0  0  0  0  0  0  0  0  0  0  0
   21.6855    8.9139   31.3839 N   0  0  0  0  0  0  0  0  0  0  0  0
   20.8979    7.8953   31.7573 C   0  0  0  0  0  0  0  0  0  0  0  0
   19.7602    8.0588   32.5320 C   0  0  0  0  0  0  0  0  0  0  0  0
   19.4059    9.3393   32.9154 C   0  0  0  0  0  0  0  0  0  0  0  0
   18.2480    9.4343   33.6766 N   0  0  0  0  0  0  0  0  0  0  0  0
   20.1940   10.4357   32.5279 C   0  0  0  0  0  0  0  0  0  0  0  0
   19.8720   11.8131   32.8833 C   0  0  0  0  0  0  0  0  0  0  0  0
   19.6248   12.9098   33.1606 N   0  0  0  0  0  0  0  0  0  0  0  0
   21.3998    6.6892   31.3168 N   0  0  0  0  0  0  0  0  0  0  0  0
   20.7829    5.5176   31.1304 C   0  0  0  0  0  0  0  0  0  0  0  0
   19.5708    5.3642   31.2684 O   0  0  0  0  0  0  0  0  0  0  0  0
   21.6349    4.3090   30.7130 C   0  0  0  0  0  0  0  0  0  0  0  0
   23.1282    4.5971   30.5483 C   0  0  0  0  0  0  0  0  0  0  0  0
   23.5814    5.4159   29.5068 C   0  0  0  0  0  0  0  0  0  0  0  0
   24.9398    5.7006   29.3735 C   0  0  0  0  0  0  0  0  0  0  0  0
   25.8537    5.1673   30.2817 C   0  0  0  0  0  0  0  0  0  0  0  0
   25.4095    4.3457   31.3184 C   0  0  0  0  0  0  0  0  0  0  0  0
   24.0502    4.0609   31.4520 C   0  0  0  0  0  0  0  0  0  0  0  0
   24.9104   12.0679   29.6628 H   0  0  0  0  0  0  0  0  0  0  0  0
   23.3437   12.9427   29.7442 H   0  0  0  0  0  0  0  0  0  0  0  0
   24.3164   12.7018   31.2350 H   0  0  0  0  0  0  0  0  0  0  0  0
   22.9834   10.4796   29.5813 H   0  0  0  0  0  0  0  0  0  0  0  0
   23.9561   10.2386   31.0721 H   0  0  0  0  0  0  0  0  0  0  0  0
   22.5120    8.7516   30.8449 H   0  0  0  0  0  0  0  0  0  0  0  0
   19.1654    7.2076   32.8287 H   0  0  0  0  0  0  0  0  0  0  0  0
   18.0364   10.3808   33.9202 H   0  0  0  0  0  0  0  0  0  0  0  0
   22.3768    6.6908   31.1036 H   0  0  0  0  0  0  0  0  0  0  0  0
   21.5203    3.5293   31.4804 H   0  0  0  0  0  0  0  0  0  0  0  0
   21.2511    3.9365   29.7518 H   0  0  0  0  0  0  0  0  0  0  0  0
   22.8746    5.8294   28.8026 H   0  0  0  0  0  0  0  0  0  0  0  0
   25.2835    6.3330   28.5683 H   0  0  0  0  0  0  0  0  0  0  0  0
   26.9058    5.3903   30.1827 H   0  0  0  0  0  0  0  0  0  0  0  0
   26.1189    3.9296   32.0184 H   0  0  0  0  0  0  0  0  0  0  0  0
   23.7095    3.4247   32.2555 H   0  0  0  0  0  0  0  0  0  0  0  0
  1  2  1  0  0  0  0
  2  3  1  0  0  0  0
  3  4  1  0  0  0  0
  4 10  2  0  0  0  0
  4  5  1  0  0  0  0
  5  6  1  0  0  0  0
  6  7  2  0  0  0  0
  6 13  1  0  0  0  0
  7  8  1  0  0  0  0
  8  9  2  0  0  0  0
  8 10  1  0  0  0  0
 10 11  1  0  0  0  0
 11 12  3  0  0  0  0
 13 14  1  0  0  0  0
 14 15  2  0  0  0  0
 14 16  1  0  0  0  0
 16 17  1  0  0  0  0
 17 22  2  0  0  0  0
 17 18  1  0  0  0  0
 18 19  2  0  0  0  0
 19 20  1  0  0  0  0
 20 21  2  0  0  0  0
 21 22  1  0  0  0  0
  1 23  1  0  0  0  0
  1 24  1  0  0  0  0
  1 25  1  0  0  0  0
  2 26  1  0  0  0  0
  2 27  1  0  0  0  0
  5 28  1  0  0  0  0
  7 29  1  0  0  0  0
  9 30  1  0  0  0  0
 13 31  1  0  0  0  0
 16 32  1  0  0  0  0
 16 33  1  0  0  0  0
 18 34  1  0  0  0  0
 19 35  1  0  0  0  0
 20 36  1  0  0  0  0
 21 37  1  0  0  0  0
 22 38  1  0  0  0  0
M  END
> <i_m_stars>
2

> <r_user_dG.exp>
-8.49337

$$$$
18624-1
  -OEChem-05192314073D
 Structure written by MMmdl.
 38 39  0     0  0  0  0  0  0999 V2000
   24.0164   12.2539   30.2762 C   0  0  0  0  0  0  0  0  0  0  0  0
   23.2908   10.9314   30.5359 C   0  0  0  0  0  0  0  0  0  0  0  0
   22.1419   11.2134   31.3311 O   0  0  0  0  0  0  0  0  0  0  0  0
   21.3323   10.1743   31.7566 C   0  0  0  0  0  0  0  0  0  0  0  0
   21.6855    8.9139   31.3839 N   0  0  0  0  0  0  0  0  0  0  0  0
   20.8979    7.8953   31.7573 C   0  0  0  0  0  0  0  0  0  0  0  0
   19.7602    8.0588   32.5320 C   0  0  0  0  0  0  0  0  0  0  0  0
   19.4059    9.3393   32.9154 C   0  0  0  0  0  0  0  0  0  0  0  0
   18.2480    9.4343   33.6766 N   0  0  0  0  0  0  0  0  0  0  0  0
   20.1940   10.4357   32.5279 C   0  0  0  0  0  0  0  0  0  0  0  0
   19.8720   11.8131   32.8833 C   0  0  0  0  0  0  0  0  0  0  0  0
   19.6248   12.9098   33.1606 N   0  0  0  0  0  0  0  0  0  0  0  0
   21.3998    6.6892   31.3168 N   0  0  0  0  0  0  0  0  0  0  0  0
   20.7829    5.5176   31.1304 C   0  0  0  0  0  0  0  0  0  0  0  0
   19.5708    5.3642   31.2684 O   0  0  0  0  0  0  0  0  0  0  0  0
   21.6349    4.3090   30.7130 C   0  0  0  0  0  0  0  0  0  0  0  0
   23.1282    4.5971   30.5483 C   0  0  0  0  0  0  0  0  0  0  0  0
   23.5814    5.4159   29.5068 C   0  0  0  0  0  0  0  0  0  0  0  0
   24.9398    5.7006   29.3735 C   0  0  0  0  0  0  0  0  0  0  0  0
   25.8537    5.1673   30.2817 C   0  0  0  0  0  0  0  0  0  0  0  0
   25.4095    4.3457   31.3184 C   0  0  0  0  0  0  0  0  0  0  0  0
   24.0502    4.0609   31.4520 C   0  0  0  0  0  0  0  0  0  0  0  0
   24.9104   12.0679   29.6628 H   0  0  0  0  0  0  0  0  0  0  0  0
   23.3437   12.9427   29.7442 H   0  0  0  0  0  0  0  0  0  0  0  0
   24.3164   12.7018   31.2350 H   0  0  0  0  0  0  0  0  0  0  0  0
   22.9834   10.4796   29.5813 H   0  0  0  0  0  0  0  0  0  0  0  0
   23.9561   10.2386   31.0721 H   0  0  0  0  0  0  0  0  0  0  0  0
   22.5120    8.7516   30.8449 H   0  0  0  0  0  0  0  0  0  0  0  0
   19.1654    7.2076   32.8287 H   0  0  0  0  0  0  0  0  0  0  0  0
   18.0754   10.3928   33.9036 H   0  0  0  0  0  0  0  0  0  0  0  0
   17.4758    9.0711   33.1553 H   0  0  0  0  0  0  0  0  0  0  0  0
   21.5203    3.5293   31.4804 H   0  0  0  0  0  0  0  0  0  0  0  0
   21.2511    3.9365   29.7518 H   0  0  0  0  0  0  0  0  0  0  0  0
   22.8746    5.8294   28.8026 H   0  0  0  0  0  0  0  0  0  0  0  0
   25.2835    6.3330   28.5683 H   0  0  0  0  0  0  0  0  0  0  0  0
   26.9058    5.3903   30.1827 H   0  0  0  0  0  0  0  0  0  0  0  0
   26.1189    3.9296   32.0184 H   0  0  0  0  0  0  0  0  0  0  0  0
   23.7095    3.4247   32.2555 H   0  0  0  0  0  0  0  0  0  0  0  0
  1  2  1  0  0  0  0
  2  3  1  0  0  0  0
  3  4  1  0  0  0  0
  4 10  2  0  0  0  0
  4  5  1  0  0  0  0
  5  6  1  0  0  0  0
  6  7  1  0  0  0  0
  6 13  2  0  0  0  0
  7  8  2  0  0  0  0
  8  9  1  0  0  0  0
  8 10  1  0  0  0  0
 10 11  1  0  0  0  0
 11 12  3  0  0  0  0
 13 14  1  0  0  0  0
 14 15  2  0  0  0  0
 14 16  1  0  0  0  0
 16 17  1  0  0  0  0
 17 22  2  0  0  0  0
 17 18  1  0  0  0  0
 18 19  2  0  0  0  0
 19 20  1  0  0  0  0
 20 21  2  0  0  0  0
 21 22  1  0  0  0  0
  1 23  1  0  0  0  0
  1 24  1  0  0  0  0
  1 25  1  0  0  0  0
  2 26  1  0  0  0  0
  2 27  1  0  0  0  0
  5 28  1  0  0  0  0
  7 29  1  0  0  0  0
  9 30  1  0  0  0  0
  9 31  1  0  0  0  0
 16 32  1  0  0  0  0
 16 33  1  0  0  0  0
 18 34  1  0  0  0  0
 19 35  1  0  0  0  0
 20 36  1  0  0  0  0
 21 37  1  0  0  0  0
 22 38  1  0  0  0  0
M  END
> <i_m_stars>
2

> <r_user_dG.exp>
-8.49337

$$$$
18624-1
  -OEChem-05192314073D
 Structure written by MMmdl.
 38 39  0     0  0  0  0  0  0999 V2000
   24.0164   12.2539   30.2762 C   0  0  0  0  0  0  0  0  0  0  0  0
   23.2908   10.9314   30.5359 C   0  0  0  0  0  0  0  0  0  0  0  0
   22.1419   11.2134   31.3311 O   0  0  0  0  0  0  0  0  0  0  0  0
   21.3323   10.1743   31.7566 C   0  0  0  0  0  0  0  0  0  0  0  0
   21.6855    8.9139   31.3839 N   0  0  0  0  0  0  0  0  0  0  0  0
   20.8979    7.8953   31.7573 C   0  0  0  0  0  0  0  0  0  0  0  0
   19.7602    8.0588   32.5320 C   0  0  0  0  0  0  0  0  0  0  0  0
   19.4059    9.3393   32.9154 C   0  0  0  0  0  0  0  0  0  0  0  0
   18.2480    9.4343   33.6766 N   0  0  0  0  0  0  0  0  0  0  0  0
   20.1940   10.4357   32.5279 C   0  0  0  0  0  0  0  0  0  0  0  0
   19.8720   11.8131   32.8833 C   0  0  0  0  0  0  0  0  0  0  0  0
   19.6248   12.9098   33.1606 N   0  0  0  0  0  0  0  0  0  0  0  0
   21.3998    6.6892   31.3168 N   0  0  0  0  0  0  0  0  0  0  0  0
   20.7829    5.5176   31.1304 C   0  0  0  0  0  0  0  0  0  0  0  0
   19.5708    5.3642   31.2684 O   0  0  0  0  0  0  0  0  0  0  0  0
   21.6349    4.3090   30.7130 C   0  0  0  0  0  0  0  0  0  0  0  0
   23.1282    4.5971   30.5483 C   0  0  0  0  0  0  0  0  0  0  0  0
   23.5814    5.4159   29.5068 C   0  0  0  0  0  0  0  0  0  0  0  0
   24.9398    5.7006   29.3735 C   0  0  0  0  0  0  0  0  0  0  0  0
   25.8537    5.1673   30.2817 C   0  0  0  0  0  0  0  0  0  0  0  0
   25.4095    4.3457   31.3184 C   0  0  0  0  0  0  0  0  0  0  0  0
   24.0502    4.0609   31.4520 C   0  0  0  0  0  0  0  0  0  0  0  0
   24.9104   12.0679   29.6628 H   0  0  0  0  0  0  0  0  0  0  0  0
   23.3437   12.9427   29.7442 H   0  0  0  0  0  0  0  0  0  0  0  0
   24.3164   12.7018   31.2350 H   0  0  0  0  0  0  0  0  0  0  0  0
   22.9834   10.4796   29.5813 H   0  0  0  0  0  0  0  0  0  0  0  0
   23.9561   10.2386   31.0721 H   0  0  0  0  0  0  0  0  0  0  0  0
   22.5120    8.7516   30.8449 H   0  0  0  0  0  0  0  0  0  0  0  0
   19.1654    7.2076   32.8287 H   0  0  0  0  0  0  0  0  0  0  0  0
   18.0364   10.3808   33.9202 H   0  0  0  0  0  0  0  0  0  0  0  0
   19.3432    4.4595   31.0888 H   0  0  0  0  0  0  0  0  0  0  0  0
   21.5203    3.5293   31.4804 H   0  0  0  0  0  0  0  0  0  0  0  0
   21.2511    3.9365   29.7518 H   0  0  0  0  0  0  0  0  0  0  0  0
   22.8746    5.8294   28.8026 H   0  0  0  0  0  0  0  0  0  0  0  0
   25.2835    6.3330   28.5683 H   0  0  0  0  0  0  0  0  0  0  0  0
   26.9058    5.3903   30.1827 H   0  0  0  0  0  0  0  0  0  0  0  0
   26.1189    3.9296   32.0184 H   0  0  0  0  0  0  0  0  0  0  0  0
   23.7095    3.4247   32.2555 H   0  0  0  0  0  0  0  0  0  0  0  0
  1  2  1  0  0  0  0
  2  3  1  0  0  0  0
  3  4  1  0  0  0  0
  4 10  2  0  0  0  0
  4  5  1  0  0  0  0
  5  6  1  0  0  0  0
  6  7  2  0  0  0  0
  6 13  1  0  0  0  0
  7  8  1  0  0  0  0
  8  9  2  0  0  0  0
  8 10  1  0  0  0  0
 10 11  1  0  0  0  0
 11 12  3  0  0  0  0
 13 14  2  0  0  0  0
 14 15  1  0  0  0  0
 14 16  1  0  0  0  0
 16 17  1  0  0  0  0
 17 22  2  0  0  0  0
 17 18  1  0  0  0  0
 18 19  2  0  0  0  0
 19 20  1  0  0  0  0
 20 21  2  0  0  0  0
 21 22  1  0  0  0  0
  1 23  1  0  0  0  0
  1 24  1  0  0  0  0
  1 25  1  0  0  0  0
  2 26  1  0  0  0  0
  2 27  1  0  0  0  0
  5 28  1  0  0  0  0
  7 29  1  0  0  0  0
  9 30  1  0  0  0  0
 15 31  1  0  0  0  0
 16 32  1  0  0  0  0
 16 33  1  0  0  0  0
 18 34  1  0  0  0  0
 19 35  1  0  0  0  0
 20 36  1  0  0  0  0
 21 37  1  0  0  0  0
 22 38  1  0  0  0  0
M  END
> <i_m_stars>
2

> <r_user_dG.exp>
-8.49337

$$$$
18624-1
  -OEChem-05192314073D
 Structure written by MMmdl.
 38 39  0     1  0  0  0  0  0999 V2000
   24.0164   12.2539   30.2762 C   0  0  0  0  0  0  0  0  0  0  0  0
   23.2908   10.9314   30.5359 C   0  0  0  0  0  0  0  0  0  0  0  0
   22.1419   11.2134   31.3311 O   0  0  0  0  0  0  0  0  0  0  0  0
   21.3323   10.1743   31.7566 C   0  0  0  0  0  0  0  0  0  0  0  0
   21.6855    8.9139   31.3839 N   0  0  0  0  0  0  0  0  0  0  0  0
   20.8979    7.8953   31.7573 C   0  0  0  0  0  0  0  0  0  0  0  0
   19.7602    8.0588   32.5320 C   0  0  0  0  0  0  0  0  0  0  0  0
   19.4059    9.3393   32.9154 C   0  0  0  0  0  0  0  0  0  0  0  0
   18.2480    9.4343   33.6766 N   0  0  0  0  0  0  0  0  0  0  0  0
   20.1940   10.4357   32.5279 C   0  0  3  0  0  0  0  0  0  0  0  0
   19.8720   11.8131   32.8833 C   0  0  0  0  0  0  0  0  0  0  0  0
   19.6248   12.9098   33.1606 N   0  0  0  0  0  0  0  0  0  0  0  0
   21.3998    6.6892   31.3168 N   0  0  0  0  0  0  0  0  0  0  0  0
   20.7829    5.5176   31.1304 C   0  0  0  0  0  0  0  0  0  0  0  0
   19.5708    5.3642   31.2684 O   0  0  0  0  0  0  0  0  0  0  0  0
   21.6349    4.3090   30.7130 C   0  0  0  0  0  0  0  0  0  0  0  0
   23.1282    4.5971   30.5483 C   0  0  0  0  0  0  0  0  0  0  0  0
   23.5814    5.4159   29.5068 C   0  0  0  0  0  0  0  0  0  0  0  0
   24.9398    5.7006   29.3735 C   0  0  0  0  0  0  0  0  0  0  0  0
   25.8537    5.1673   30.2817 C   0  0  0  0  0  0  0  0  0  0  0  0
   25.4095    4.3457   31.3184 C   0  0  0  0  0  0  0  0  0  0  0  0
   24.0502    4.0609   31.4520 C   0  0  0  0  0  0  0  0  0  0  0  0
   24.9104   12.0679   29.6628 H   0  0  0  0  0  0  0  0  0  0  0  0
   23.3437   12.9427   29.7442 H   0  0  0  0  0  0  0  0  0  0  0  0
   24.3164   12.7018   31.2350 H   0  0  0  0  0  0  0  0  0  0  0  0
   22.9834   10.4796   29.5813 H   0  0  0  0  0  0  0  0  0  0  0  0
   23.9561   10.2386   31.0721 H   0  0  0  0  0  0  0  0  0  0  0  0
   18.9158    7.6443   31.9618 H   0  0  0  0  0  0  0  0  0  0  0  0
   19.9052    7.4721   33.4511 H   0  0  0  0  0  0  0  0  0  0  0  0
   18.0364   10.3808   33.9202 H   0  0  0  0  0  0  0  0  0  0  0  0
   20.7903   10.3353   33.4468 H   0  0  0  0  0  0  0  0  0  0  0  0
   21.5203    3.5293   31.4804 H   0  0  0  0  0  0  0  0  0  0  0  0
   21.2511    3.9365   29.7518 H   0  0  0  0  0  0  0  0  0  0  0  0
   22.8746    5.8294   28.8026 H   0  0  0  0  0  0  0  0  0  0  0  0
   25.2835    6.3330   28.5683 H   0  0  0  0  0  0  0  0  0  0  0  0
   26.9058    5.3903   30.1827 H   0  0  0  0  0  0  0  0  0  0  0  0
   26.1189    3.9296   32.0184 H   0  0  0  0  0  0  0  0  0  0  0  0
   23.7095    3.4247   32.2555 H   0  0  0  0  0  0  0  0  0  0  0  0
  1  2  1  0  0  0  0
  2  3  1  0  0  0  0
  3  4  1  0  0  0  0
  4 10  1  0  0  0  0
  4  5  2  0  0  0  0
  5  6  1  0  0  0  0
  6  7  1  0  0  0  0
  6 13  2  0  0  0  0
  7  8  1  0  0  0  0
  8  9  2  0  0  0  0
  8 10  1  0  0  0  0
 10 11  1  0  0  0  0
 11 12  3  0  0  0  0
 13 14  1  0  0  0  0
 14 15  2  0  0  0  0
 14 16  1  0  0  0  0
 16 17  1  0  0  0  0
 17 22  2  0  0  0  0
 17 18  1  0  0  0  0
 18 19  2  0  0  0  0
 19 20  1  0  0  0  0
 20 21  2  0  0  0  0
 21 22  1  0  0  0  0
  1 23  1  0  0  0  0
  1 24  1  0  0  0  0
  1 25  1  0  0  0  0
  2 26  1  0  0  0  0
  2 27  1  0  0  0  0
  7 28  1  0  0  0  0
  7 29  1  0  0  0  0
  9 30  1  0  0  0  0
 10 31  1  0  0  0  0
 16 32  1  0  0  0  0
 16 33  1  0  0  0  0
 18 34  1  0  0  0  0
 19 35  1  0  0  0  0
 20 36  1  0  0  0  0
 21 37  1  0  0  0  0
 22 38  1  0  0  0  0
M  END
> <i_m_stars>
2

> <r_user_dG.exp>
-8.49337

$$$$
18624-1
  -OEChem-05192314073D
 Structure written by MMmdl.
 38 39  0     1  0  0  0  0  0999 V2000
   24.0164   12.2539   30.2762 C   0  0  0  0  0  0  0  0  0  0  0  0
   23.2908   10.9314   30.5359 C   0  0  0  0  0  0  0  0  0  0  0  0
   22.1419   11.2134   31.3311 O   0  0  0  0  0  0  0  0  0  0  0  0
   21.3323   10.1743   31.7566 C   0  0  0  0  0  0  0  0  0  0  0  0
   21.6855    8.9139   31.3839 N   0  0  0  0  0  0  0  0  0  0  0  0
   20.8979    7.8953   31.7573 C   0  0  0  0  0  0  0  0  0  0  0  0
   19.7602    8.0588   32.5320 C   0  0  0  0  0  0  0  0  0  0  0  0
   19.4059    9.3393   32.9154 C   0  0  0  0  0  0  0  0  0  0  0  0
   18.2480    9.4343   33.6766 N   0  0  0  0  0  0  0  0  0  0  0  0
   20.1940   10.4357   32.5279 C   0  0  3  0  0  0  0  0  0  0  0  0
   19.8720   11.8131   32.8833 C   0  0  0  0  0  0  0  0  0  0  0  0
   19.6248   12.9098   33.1606 N   0  0  0  0  0  0  0  0  0  0  0  0
   21.3998    6.6892   31.3168 N   0  0  0  0  0  0  0  0  0  0  0  0
   20.7829    5.5176   31.1304 C   0  0  0  0  0  0  0  0  0  0  0  0
   19.5708    5.3642   31.2684 O   0  0  0  0  0  0  0  0  0  0  0  0
   21.6349    4.3090   30.7130 C   0  0  0  0  0  0  0  0  0  0  0  0
   23.1282    4.5971   30.5483 C   0  0  0  0  0  0  0  0  0  0  0  0
   23.5814    5.4159   29.5068 C   0  0  0  0  0  0  0  0  0  0  0  0
   24.9398    5.7006   29.3735 C   0  0  0  0  0  0  0  0  0  0  0  0
   25.8537    5.1673   30.2817 C   0  0  0  0  0  0  0  0  0  0  0  0
   25.4095    4.3457   31.3184 C   0  0  0  0  0  0  0  0  0  0  0  0
   24.0502    4.0609   31.4520 C   0  0  0  0  0  0  0  0  0  0  0  0
   24.9104   12.0679   29.6628 H   0  0  0  0  0  0  0  0  0  0  0  0
   23.3437   12.9427   29.7442 H   0  0  0  0  0  0  0  0  0  0  0  0
   24.3164   12.7018   31.2350 H   0  0  0  0  0  0  0  0  0  0  0  0
   22.9834   10.4796   29.5813 H   0  0  0  0  0  0  0  0  0  0  0  0
   23.9561   10.2386   31.0721 H   0  0  0  0  0  0  0  0  0  0  0  0
   19.1654    7.2076   32.8287 H   0  0  0  0  0  0  0  0  0  0  0  0
   18.0364   10.3808   33.9202 H   0  0  0  0  0  0  0  0  0  0  0  0
   20.7903   10.3353   33.4468 H   0  0  0  0  0  0  0  0  0  0  0  0
   22.3768    6.6908   31.1036 H   0  0  0  0  0  0  0  0  0  0  0  0
   21.5203    3.5293   31.4804 H   0  0  0  0  0  0  0  0  0  0  0  0
   21.2511    3.9365   29.7518 H   0  0  0  0  0  0  0  0  0  0  0  0
   22.8746    5.8294   28.8026 H   0  0  0  0  0  0  0  0  0  0  0  0
   25.2835    6.3330   28.5683 H   0  0  0  0  0  0  0  0  0  0  0  0
   26.9058    5.3903   30.1827 H   0  0  0  0  0  0  0  0  0  0  0  0
   26.1189    3.9296   32.0184 H   0  0  0  0  0  0  0  0  0  0  0  0
   23.7095    3.4247   32.2555 H   0  0  0  0  0  0  0  0  0  0  0  0
  1  2  1  0  0  0  0
  2  3  1  0  0  0  0
  3  4  1  0  0  0  0
  4 10  1  0  0  0  0
  4  5  2  0  0  0  0
  5  6  1  0  0  0  0
  6  7  2  0  0  0  0
  6 13  1  0  0  0  0
  7  8  1  0  0  0  0
  8  9  2  0  0  0  0
  8 10  1  0  0  0  0
 10 11  1  0  0  0  0
 11 12  3  0  0  0  0
 13 14  1  0  0  0  0
 14 15  2  0  0  0  0
 14 16  1  0  0  0  0
 16 17  1  0  0  0  0
 17 22  2  0  0  0  0
 17 18  1  0  0  0  0
 18 19  2  0  0  0  0
 19 20  1  0  0  0  0
 20 21  2  0  0  0  0
 21 22  1  0  0  0  0
  1 23  1  0  0  0  0
  1 24  1  0  0  0  0
  1 25  1  0  0  0  0
  2 26  1  0  0  0  0
  2 27  1  0  0  0  0
  7 28  1  0  0  0  0
  9 29  1  0  0  0  0
 10 30  1  0  0  0  0
 13 31  1  0  0  0  0
 16 32  1  0  0  0  0
 16 33  1  0  0  0  0
 18 34  1  0  0  0  0
 19 35  1  0  0  0  0
 20 36  1  0  0  0  0
 21 37  1  0  0  0  0
 22 38  1  0  0  0  0
M  END
> <i_m_stars>
2

> <r_user_dG.exp>
-8.49337

$$$$
18624-1
  -OEChem-05192314073D
 Structure written by MMmdl.
 38 39  0     0  0  0  0  0  0999 V2000
   24.0164   12.2539   30.2762 C   0  0  0  0  0  0  0  0  0  0  0  0
   23.2908   10.9314   30.5359 C   0  0  0  0  0  0  0  0  0  0  0  0
   22.1419   11.2134   31.3311 O   0  0  0  0  0  0  0  0  0  0  0  0
   21.3323   10.1743   31.7566 C   0  0  0  0  0  0  0  0  0  0  0  0
   21.6855    8.9139   31.3839 N   0  0  0  0  0  0  0  0  0  0  0  0
   20.8979    7.8953   31.7573 C   0  0  0  0  0  0  0  0  0  0  0  0
   19.7602    8.0588   32.5320 C   0  0  0  0  0  0  0  0  0  0  0  0
   19.4059    9.3393   32.9154 C   0  0  0  0  0  0  0  0  0  0  0  0
   18.2480    9.4343   33.6766 N   0  0  0  0  0  0  0  0  0  0  0  0
   20.1940   10.4357   32.5279 C   0  0  0  0  0  0  0  0  0  0  0  0
   19.8720   11.8131   32.8833 C   0  0  0  0  0  0  0  0  0  0  0  0
   19.6248   12.9098   33.1606 N   0  0  0  0  0  0  0  0  0  0  0  0
   21.3998    6.6892   31.3168 N   0  0  0  0  0  0  0  0  0  0  0  0
   20.7829    5.5176   31.1304 C   0  0  0  0  0  0  0  0  0  0  0  0
   19.5708    5.3642   31.2684 O   0  0  0  0  0  0  0  0  0  0  0  0
   21.6349    4.3090   30.7130 C   0  0  0  0  0  0  0  0  0  0  0  0
   23.1282    4.5971   30.5483 C   0  0  0  0  0  0  0  0  0  0  0  0
   23.5814    5.4159   29.5068 C   0  0  0  0  0  0  0  0  0  0  0  0
   24.9398    5.7006   29.3735 C   0  0  0  0  0  0  0  0  0  0  0  0
   25.8537    5.1673   30.2817 C   0  0  0  0  0  0  0  0  0  0  0  0
   25.4095    4.3457   31.3184 C   0  0  0  0  0  0  0  0  0  0  0  0
   24.0502    4.0609   31.4520 C   0  0  0  0  0  0  0  0  0  0  0  0
   24.9104   12.0679   29.6628 H   0  0  0  0  0  0  0  0  0  0  0  0
   23.3437   12.9427   29.7442 H   0  0  0  0  0  0  0  0  0  0  0  0
   24.3164   12.7018   31.2350 H   0  0  0  0  0  0  0  0  0  0  0  0
   22.9834   10.4796   29.5813 H   0  0  0  0  0  0  0  0  0  0  0  0
   23.9561   10.2386   31.0721 H   0  0  0  0  0  0  0  0  0  0  0  0
   18.9158    7.6443   31.9618 H   0  0  0  0  0  0  0  0  0  0  0  0
   19.9052    7.4721   33.4511 H   0  0  0  0  0  0  0  0  0  0  0  0
   18.0364   10.3808   33.9202 H   0  0  0  0  0  0  0  0  0  0  0  0
   22.3768    6.6908   31.1036 H   0  0  0  0  0  0  0  0  0  0  0  0
   21.5203    3.5293   31.4804 H   0  0  0  0  0  0  0  0  0  0  0  0
   21.2511    3.9365   29.7518 H   0  0  0  0  0  0  0  0  0  0  0  0
   22.8746    5.8294   28.8026 H   0  0  0  0  0  0  0  0  0  0  0  0
   25.2835    6.3330   28.5683 H   0  0  0  0  0  0  0  0  0  0  0  0
   26.9058    5.3903   30.1827 H   0  0  0  0  0  0  0  0  0  0  0  0
   26.1189    3.9296   32.0184 H   0  0  0  0  0  0  0  0  0  0  0  0
   23.7095    3.4247   32.2555 H   0  0  0  0  0  0  0  0  0  0  0  0
  1  2  1  0  0  0  0
  2  3  1  0  0  0  0
  3  4  1  0  0  0  0
  4 10  2  0  0  0  0
  4  5  1  0  0  0  0
  5  6  2  0  0  0  0
  6  7  1  0  0  0  0
  6 13  1  0  0  0  0
  7  8  1  0  0  0  0
  8  9  2  0  0  0  0
  8 10  1  0  0  0  0
 10 11  1  0  0  0  0
 11 12  3  0  0  0  0
 13 14  1  0  0  0  0
 14 15  2  0  0  0  0
 14 16  1  0  0  0  0
 16 17  1  0  0  0  0
 17 22  2  0  0  0  0
 17 18  1  0  0  0  0
 18 19  2  0  0  0  0
 19 20  1  0  0  0  0
 20 21  2  0  0  0  0
 21 22  1  0  0  0  0
  1 23  1  0  0  0  0
  1 24  1  0  0  0  0
  1 25  1  0  0  0  0
  2 26  1  0  0  0  0
  2 27  1  0  0  0  0
  7 28  1  0  0  0  0
  7 29  1  0  0  0  0
  9 30  1  0  0  0  0
 13 31  1  0  0  0  0
 16 32  1  0  0  0  0
 16 33  1  0  0  0  0
 18 34  1  0  0  0  0
 19 35  1  0  0  0  0
 20 36  1  0  0  0  0
 21 37  1  0  0  0  0
 22 38  1  0  0  0  0
M  END
> <i_m_stars>
2

> <r_user_dG.exp>
-8.49337

$$$$
18624-1
  -OEChem-05192314073D
 Structure written by MMmdl.
 38 39  0     1  0  0  0  0  0999 V2000
   24.0164   12.2539   30.2762 C   0  0  0  0  0  0  0  0  0  0  0  0
   23.2908   10.9314   30.5359 C   0  0  0  0  0  0  0  0  0  0  0  0
   22.1419   11.2134   31.3311 O   0  0  0  0  0  0  0  0  0  0  0  0
   21.3323   10.1743   31.7566 C   0  0  0  0  0  0  0  0  0  0  0  0
   21.6855    8.9139   31.3839 N   0  0  0  0  0  0  0  0  0  0  0  0
   20.8979    7.8953   31.7573 C   0  0  0  0  0  0  0  0  0  0  0  0
   19.7602    8.0588   32.5320 C   0  0  0  0  0  0  0  0  0  0  0  0
   19.4059    9.3393   32.9154 C   0  0  0  0  0  0  0  0  0  0  0  0
   18.2480    9.4343   33.6766 N   0  0  0  0  0  0  0  0  0  0  0  0
   20.1940   10.4357   32.5279 C   0  0  3  0  0  0  0  0  0  0  0  0
   19.8720   11.8131   32.8833 C   0  0  0  0  0  0  0  0  0  0  0  0
   19.6248   12.9098   33.1606 N   0  0  0  0  0  0  0  0  0  0  0  0
   21.3998    6.6892   31.3168 N   0  0  0  0  0  0  0  0  0  0  0  0
   20.7829    5.5176   31.1304 C   0  0  0  0  0  0  0  0  0  0  0  0
   19.5708    5.3642   31.2684 O   0  0  0  0  0  0  0  0  0  0  0  0
   21.6349    4.3090   30.7130 C   0  0  0  0  0  0  0  0  0  0  0  0
   23.1282    4.5971   30.5483 C   0  0  0  0  0  0  0  0  0  0  0  0
   23.5814    5.4159   29.5068 C   0  0  0  0  0  0  0  0  0  0  0  0
   24.9398    5.7006   29.3735 C   0  0  0  0  0  0  0  0  0  0  0  0
   25.8537    5.1673   30.2817 C   0  0  0  0  0  0  0  0  0  0  0  0
   25.4095    4.3457   31.3184 C   0  0  0  0  0  0  0  0  0  0  0  0
   24.0502    4.0609   31.4520 C   0  0  0  0  0  0  0  0  0  0  0  0
   24.9104   12.0679   29.6628 H   0  0  0  0  0  0  0  0  0  0  0  0
   23.3437   12.9427   29.7442 H   0  0  0  0  0  0  0  0  0  0  0  0
   24.3164   12.7018   31.2350 H   0  0  0  0  0  0  0  0  0  0  0  0
   22.9834   10.4796   29.5813 H   0  0  0  0  0  0  0  0  0  0  0  0
   23.9561   10.2386   31.0721 H   0  0  0  0  0  0  0  0  0  0  0  0
   19.1654    7.2076   32.8287 H   0  0  0  0  0  0  0  0  0  0  0  0
   18.0754   10.3928   33.9036 H   0  0  0  0  0  0  0  0  0  0  0  0
   17.4758    9.0711   33.1553 H   0  0  0  0  0  0  0  0  0  0  0  0
   20.7903   10.3353   33.4468 H   0  0  0  0  0  0  0  0  0  0  0  0
   21.5203    3.5293   31.4804 H   0  0  0  0  0  0  0  0  0  0  0  0
   21.2511    3.9365   29.7518 H   0  0  0  0  0  0  0  0  0  0  0  0
   22.8746    5.8294   28.8026 H   0  0  0  0  0  0  0  0  0  0  0  0
   25.2835    6.3330   28.5683 H   0  0  0  0  0  0  0  0  0  0  0  0
   26.9058    5.3903   30.1827 H   0  0  0  0  0  0  0  0  0  0  0  0
   26.1189    3.9296   32.0184 H   0  0  0  0  0  0  0  0  0  0  0  0
   23.7095    3.4247   32.2555 H   0  0  0  0  0  0  0  0  0  0  0  0
  1  2  1  0  0  0  0
  2  3  1  0  0  0  0
  3  4  1  0  0  0  0
  4 10  1  0  0  0  0
  4  5  2  0  0  0  0
  5  6  1  0  0  0  0
  6  7  1  0  0  0  0
  6 13  2  0  0  0  0
  7  8  2  0  0  0  0
  8  9  1  0  0  0  0
  8 10  1  0  0  0  0
 10 11  1  0  0  0  0
 11 12  3  0  0  0  0
 13 14  1  0  0  0  0
 14 15  2  0  0  0  0
 14 16  1  0  0  0  0
 16 17  1  0  0  0  0
 17 22  2  0  0  0  0
 17 18  1  0  0  0  0
 18 19  2  0  0  0  0
 19 20  1  0  0  0  0
 20 21  2  0  0  0  0
 21 22  1  0  0  0  0
  1 23  1  0  0  0  0
  1 24  1  0  0  0  0
  1 25  1  0  0  0  0
  2 26  1  0  0  0  0
  2 27  1  0  0  0  0
  7 28  1  0  0  0  0
  9 29  1  0  0  0  0
  9 30  1  0  0  0  0
 10 31  1  0  0  0  0
 16 32  1  0  0  0  0
 16 33  1  0  0  0  0
 18 34  1  0  0  0  0
 19 35  1  0  0  0  0
 20 36  1  0  0  0  0
 21 37  1  0  0  0  0
 22 38  1  0  0  0  0
M  END
> <i_m_stars>
2

> <r_user_dG.exp>
-8.49337

$$$$
18624-1
  -OEChem-05192314073D
 Structure written by MMmdl.
 38 39  0     0  0  0  0  0  0999 V2000
   24.0164   12.2539   30.2762 C   0  0  0  0  0  0  0  0  0  0  0  0
   23.2908   10.9314   30.5359 C   0  0  0  0  0  0  0  0  0  0  0  0
   22.1419   11.2134   31.3311 O   0  0  0  0  0  0  0  0  0  0  0  0
   21.3323   10.1743   31.7566 C   0  0  0  0  0  0  0  0  0  0  0  0
   21.6855    8.9139   31.3839 N   0  0  0  0  0  0  0  0  0  0  0  0
   20.8979    7.8953   31.7573 C   0  0  0  0  0  0  0  0  0  0  0  0
   19.7602    8.0588   32.5320 C   0  0  0  0  0  0  0  0  0  0  0  0
   19.4059    9.3393   32.9154 C   0  0  0  0  0  0  0  0  0  0  0  0
   18.2480    9.4343   33.6766 N   0  0  0  0  0  0  0  0  0  0  0  0
   20.1940   10.4357   32.5279 C   0  0  0  0  0  0  0  0  0  0  0  0
   19.8720   11.8131   32.8833 C   0  0  0  0  0  0  0  0  0  0  0  0
   19.6248   12.9098   33.1606 N   0  0  0  0  0  0  0  0  0  0  0  0
   21.3998    6.6892   31.3168 N   0  0  0  0  0  0  0  0  0  0  0  0
   20.7829    5.5176   31.1304 C   0  0  0  0  0  0  0  0  0  0  0  0
   19.5708    5.3642   31.2684 O   0  0  0  0  0  0  0  0  0  0  0  0
   21.6349    4.3090   30.7130 C   0  0  0  0  0  0  0  0  0  0  0  0
   23.1282    4.5971   30.5483 C   0  0  0  0  0  0  0  0  0  0  0  0
   23.5814    5.4159   29.5068 C   0  0  0  0  0  0  0  0  0  0  0  0
   24.9398    5.7006   29.3735 C   0  0  0  0  0  0  0  0  0  0  0  0
   25.8537    5.1673   30.2817 C   0  0  0  0  0  0  0  0  0  0  0  0
   25.4095    4.3457   31.3184 C   0  0  0  0  0  0  0  0  0  0  0  0
   24.0502    4.0609   31.4520 C   0  0  0  0  0  0  0  0  0  0  0  0
   24.9104   12.0679   29.6628 H   0  0  0  0  0  0  0  0  0  0  0  0
   23.3437   12.9427   29.7442 H   0  0  0  0  0  0  0  0  0  0  0  0
   24.3164   12.7018   31.2350 H   0  0  0  0  0  0  0  0  0  0  0  0
   22.9834   10.4796   29.5813 H   0  0  0  0  0  0  0  0  0  0  0  0
   23.9561   10.2386   31.0721 H   0  0  0  0  0  0  0  0  0  0  0  0
   18.9158    7.6443   31.9618 H   0  0  0  0  0  0  0  0  0  0  0  0
   19.9052    7.4721   33.4511 H   0  0  0  0  0  0  0  0  0  0  0  0
   18.0754   10.3928   33.9036 H   0  0  0  0  0  0  0  0  0  0  0  0
   17.4758    9.0711   33.1553 H   0  0  0  0  0  0  0  0  0  0  0  0
   21.5203    3.5293   31.4804 H   0  0  0  0  0  0  0  0  0  0  0  0
   21.2511    3.9365   29.7518 H   0  0  0  0  0  0  0  0  0  0  0  0
   22.8746    5.8294   28.8026 H   0  0  0  0  0  0  0  0  0  0  0  0
   25.2835    6.3330   28.5683 H   0  0  0  0  0  0  0  0  0  0  0  0
   26.9058    5.3903   30.1827 H   0  0  0  0  0  0  0  0  0  0  0  0
   26.1189    3.9296   32.0184 H   0  0  0  0  0  0  0  0  0  0  0  0
   23.7095    3.4247   32.2555 H   0  0  0  0  0  0  0  0  0  0  0  0
  1  2  1  0  0  0  0
  2  3  1  0  0  0  0
  3  4  1  0  0  0  0
  4 10  1  0  0  0  0
  4  5  2  0  0  0  0
  5  6  1  0  0  0  0
  6  7  1  0  0  0  0
  6 13  2  0  0  0  0
  7  8  1  0  0  0  0
  8  9  1  0  0  0  0
  8 10  2  0  0  0  0
 10 11  1  0  0  0  0
 11 12  3  0  0  0  0
 13 14  1  0  0  0  0
 14 15  2  0  0  0  0
 14 16  1  0  0  0  0
 16 17  1  0  0  0  0
 17 22  2  0  0  0  0
 17 18  1  0  0  0  0
 18 19  2  0  0  0  0
 19 20  1  0  0  0  0
 20 21  2  0  0  0  0
 21 22  1  0  0  0  0
  1 23  1  0  0  0  0
  1 24  1  0  0  0  0
  1 25  1  0  0  0  0
  2 26  1  0  0  0  0
  2 27  1  0  0  0  0
  7 28  1  0  0  0  0
  7 29  1  0  0  0  0
  9 30  1  0  0  0  0
  9 31  1  0  0  0  0
 16 32  1  0  0  0  0
 16 33  1  0  0  0  0
 18 34  1  0  0  0  0
 19 35  1  0  0  0  0
 20 36  1  0  0  0  0
 21 37  1  0  0  0  0
 22 38  1  0  0  0  0
M  END
> <i_m_stars>
2

> <r_user_dG.exp>
-8.49337

$$$$
18624-1
  -OEChem-05192314073D
 Structure written by MMmdl.
 38 39  0     0  0  0  0  0  0999 V2000
   24.0164   12.2539   30.2762 C   0  0  0  0  0  0  0  0  0  0  0  0
   23.2908   10.9314   30.5359 C   0  0  0  0  0  0  0  0  0  0  0  0
   22.1419   11.2134   31.3311 O   0  0  0  0  0  0  0  0  0  0  0  0
   21.3323   10.1743   31.7566 C   0  0  0  0  0  0  0  0  0  0  0  0
   21.6855    8.9139   31.3839 N   0  0  0  0  0  0  0  0  0  0  0  0
   20.8979    7.8953   31.7573 C   0  0  0  0  0  0  0  0  0  0  0  0
   19.7602    8.0588   32.5320 C   0  0  0  0  0  0  0  0  0  0  0  0
   19.4059    9.3393   32.9154 C   0  0  0  0  0  0  0  0  0  0  0  0
   18.2480    9.4343   33.6766 N   0  0  0  0  0  0  0  0  0  0  0  0
   20.1940   10.4357   32.5279 C   0  0  0  0  0  0  0  0  0  0  0  0
   19.8720   11.8131   32.8833 C   0  0  0  0  0  0  0  0  0  0  0  0
   19.6248   12.9098   33.1606 N   0  0  0  0  0  0  0  0  0  0  0  0
   21.3998    6.6892   31.3168 N   0  0  0  0  0  0  0  0  0  0  0  0
   20.7829    5.5176   31.1304 C   0  0  0  0  0  0  0  0  0  0  0  0
   19.5708    5.3642   31.2684 O   0  0  0  0  0  0  0  0  0  0  0  0
   21.6349    4.3090   30.7130 C   0  0  0  0  0  0  0  0  0  0  0  0
   23.1282    4.5971   30.5483 C   0  0  0  0  0  0  0  0  0  0  0  0
   23.5814    5.4159   29.5068 C   0  0  0  0  0  0  0  0  0  0  0  0
   24.9398    5.7006   29.3735 C   0  0  0  0  0  0  0  0  0  0  0  0
   25.8537    5.1673   30.2817 C   0  0  0  0  0  0  0  0  0  0  0  0
   25.4095    4.3457   31.3184 C   0  0  0  0  0  0  0  0  0  0  0  0
   24.0502    4.0609   31.4520 C   0  0  0  0  0  0  0  0  0  0  0  0
   24.9104   12.0679   29.6628 H   0  0  0  0  0  0  0  0  0  0  0  0
   23.3437   12.9427   29.7442 H   0  0  0  0  0  0  0  0  0  0  0  0
   24.3164   12.7018   31.2350 H   0  0  0  0  0  0  0  0  0  0  0  0
   22.9834   10.4796   29.5813 H   0  0  0  0  0  0  0  0  0  0  0  0
   23.9561   10.2386   31.0721 H   0  0  0  0  0  0  0  0  0  0  0  0
   22.5120    8.7516   30.8449 H   0  0  0  0  0  0  0  0  0  0  0  0
   18.9158    7.6443   31.9618 H   0  0  0  0  0  0  0  0  0  0  0  0
   19.9052    7.4721   33.4511 H   0  0  0  0  0  0  0  0  0  0  0  0
   18.0364   10.3808   33.9202 H   0  0  0  0  0  0  0  0  0  0  0  0
   21.5203    3.5293   31.4804 H   0  0  0  0  0  0  0  0  0  0  0  0
   21.2511    3.9365   29.7518 H   0  0  0  0  0  0  0  0  0  0  0  0
   22.8746    5.8294   28.8026 H   0  0  0  0  0  0  0  0  0  0  0  0
   25.2835    6.3330   28.5683 H   0  0  0  0  0  0  0  0  0  0  0  0
   26.9058    5.3903   30.1827 H   0  0  0  0  0  0  0  0  0  0  0  0
   26.1189    3.9296   32.0184 H   0  0  0  0  0  0  0  0  0  0  0  0
   23.7095    3.4247   32.2555 H   0  0  0  0  0  0  0  0  0  0  0  0
  1  2  1  0  0  0  0
  2  3  1  0  0  0  0
  3  4  1  0  0  0  0
  4 10  2  0  0  0  0
  4  5  1  0  0  0  0
  5  6  1  0  0  0  0
  6  7  1  0  0  0  0
  6 13  2  0  0  0  0
  7  8  1  0  0  0  0
  8  9  2  0  0  0  0
  8 10  1  0  0  0  0
 10 11  1  0  0  0  0
 11 12  3  0  0  0  0
 13 14  1  0  0  0  0
 14 15  2  0  0  0  0
 14 16  1  0  0  0  0
 16 17  1  0  0  0  0
 17 22  2  0  0  0  0
 17 18  1  0  0  0  0
 18 19  2  0  0  0  0
 19 20  1  0  0  0  0
 20 21  2  0  0  0  0
 21 22  1  0  0  0  0
  1 23  1  0  0  0  0
  1 24  1  0  0  0  0
  1 25  1  0  0  0  0
  2 26  1  0  0  0  0
  2 27  1  0  0  0  0
  5 28  1  0  0  0  0
  7 29  1  0  0  0  0
  7 30  1  0  0  0  0
  9 31  1  0  0  0  0
 16 32  1  0  0  0  0
 16 33  1  0  0  0  0
 18 34  1  0  0  0  0
 19 35  1  0  0  0  0
 20 36  1  0  0  0  0
 21 37  1  0  0  0  0
 22 38  1  0  0  0  0
M  END
> <i_m_stars>
2

> <r_user_dG.exp>
-8.49337

$$$$
18624-1
  -OEChem-05192314073D
 Structure written by MMmdl.
 38 39  0     1  0  0  0  0  0999 V2000
   24.0164   12.2539   30.2762 C   0  0  0  0  0  0  0  0  0  0  0  0
   23.2908   10.9314   30.5359 C   0  0  0  0  0  0  0  0  0  0  0  0
   22.1419   11.2134   31.3311 O   0  0  0  0  0  0  0  0  0  0  0  0
   21.3323   10.1743   31.7566 C   0  0  0  0  0  0  0  0  0  0  0  0
   21.6855    8.9139   31.3839 N   0  0  0  0  0  0  0  0  0  0  0  0
   20.8979    7.8953   31.7573 C   0  0  0  0  0  0  0  0  0  0  0  0
   19.7602    8.0588   32.5320 C   0  0  0  0  0  0  0  0  0  0  0  0
   19.4059    9.3393   32.9154 C   0  0  0  0  0  0  0  0  0  0  0  0
   18.2480    9.4343   33.6766 N   0  0  0  0  0  0  0  0  0  0  0  0
   20.1940   10.4357   32.5279 C   0  0  3  0  0  0  0  0  0  0  0  0
   19.8720   11.8131   32.8833 C   0  0  0  0  0  0  0  0  0  0  0  0
   19.6248   12.9098   33.1606 N   0  0  0  0  0  0  0  0  0  0  0  0
   21.3998    6.6892   31.3168 N   0  0  0  0  0  0  0  0  0  0  0  0
   20.7829    5.5176   31.1304 C   0  0  0  0  0  0  0  0  0  0  0  0
   19.5708    5.3642   31.2684 O   0  0  0  0  0  0  0  0  0  0  0  0
   21.6349    4.3090   30.7130 C   0  0  0  0  0  0  0  0  0  0  0  0
   23.1282    4.5971   30.5483 C   0  0  0  0  0  0  0  0  0  0  0  0
   23.5814    5.4159   29.5068 C   0  0  0  0  0  0  0  0  0  0  0  0
   24.9398    5.7006   29.3735 C   0  0  0  0  0  0  0  0  0  0  0  0
   25.8537    5.1673   30.2817 C   0  0  0  0  0  0  0  0  0  0  0  0
   25.4095    4.3457   31.3184 C   0  0  0  0  0  0  0  0  0  0  0  0
   24.0502    4.0609   31.4520 C   0  0  0  0  0  0  0  0  0  0  0  0
   24.9104   12.0679   29.6628 H   0  0  0  0  0  0  0  0  0  0  0  0
   23.3437   12.9427   29.7442 H   0  0  0  0  0  0  0  0  0  0  0  0
   24.3164   12.7018   31.2350 H   0  0  0  0  0  0  0  0  0  0  0  0
   22.9834   10.4796   29.5813 H   0  0  0  0  0  0  0  0  0  0  0  0
   23.9561   10.2386   31.0721 H   0  0  0  0  0  0  0  0  0  0  0  0
   19.1654    7.2076   32.8287 H   0  0  0  0  0  0  0  0  0  0  0  0
   18.0364   10.3808   33.9202 H   0  0  0  0  0  0  0  0  0  0  0  0
   20.7903   10.3353   33.4468 H   0  0  0  0  0  0  0  0  0  0  0  0
   19.3432    4.4595   31.0888 H   0  0  0  0  0  0  0  0  0  0  0  0
   21.5203    3.5293   31.4804 H   0  0  0  0  0  0  0  0  0  0  0  0
   21.2511    3.9365   29.7518 H   0  0  0  0  0  0  0  0  0  0  0  0
   22.8746    5.8294   28.8026 H   0  0  0  0  0  0  0  0  0  0  0  0
   25.2835    6.3330   28.5683 H   0  0  0  0  0  0  0  0  0  0  0  0
   26.9058    5.3903   30.1827 H   0  0  0  0  0  0  0  0  0  0  0  0
   26.1189    3.9296   32.0184 H   0  0  0  0  0  0  0  0  0  0  0  0
   23.7095    3.4247   32.2555 H   0  0  0  0  0  0  0  0  0  0  0  0
  1  2  1  0  0  0  0
  2  3  1  0  0  0  0
  3  4  1  0  0  0  0
  4 10  1  0  0  0  0
  4  5  2  0  0  0  0
  5  6  1  0  0  0  0
  6  7  2  0  0  0  0
  6 13  1  0  0  0  0
  7  8  1  0  0  0  0
  8  9  2  0  0  0  0
  8 10  1  0  0  0  0
 10 11  1  0  0  0  0
 11 12  3  0  0  0  0
 13 14  2  0  0  0  0
 14 15  1  0  0  0  0
 14 16  1  0  0  0  0
 16 17  1  0  0  0  0
 17 22  2  0  0  0  0
 17 18  1  0  0  0  0
 18 19  2  0  0  0  0
 19 20  1  0  0  0  0
 20 21  2  0  0  0  0
 21 22  1  0  0  0  0
  1 23  1  0  0  0  0
  1 24  1  0  0  0  0
  1 25  1  0  0  0  0
  2 26  1  0  0  0  0
  2 27  1  0  0  0  0
  7 28  1  0  0  0  0
  9 29  1  0  0  0  0
 10 30  1  0  0  0  0
 15 31  1  0  0  0  0
 16 32  1  0  0  0  0
 16 33  1  0  0  0  0
 18 34  1  0  0  0  0
 19 35  1  0  0  0  0
 20 36  1  0  0  0  0
 21 37  1  0  0  0  0
 22 38  1  0  0  0  0
M  END
> <i_m_stars>
2

> <r_user_dG.exp>
-8.49337

$$$$
18624-1
  -OEChem-05192314073D
 Structure written by MMmdl.
 38 39  0     0  0  0  0  0  0999 V2000
   24.0164   12.2539   30.2762 C   0  0  0  0  0  0  0  0  0  0  0  0
   23.2908   10.9314   30.5359 C   0  0  0  0  0  0  0  0  0  0  0  0
   22.1419   11.2134   31.3311 O   0  0  0  0  0  0  0  0  0  0  0  0
   21.3323   10.1743   31.7566 C   0  0  0  0  0  0  0  0  0  0  0  0
   21.6855    8.9139   31.3839 N   0  0  0  0  0  0  0  0  0  0  0  0
   20.8979    7.8953   31.7573 C   0  0  0  0  0  0  0  0  0  0  0  0
   19.7602    8.0588   32.5320 C   0  0  0  0  0  0  0  0  0  0  0  0
   19.4059    9.3393   32.9154 C   0  0  0  0  0  0  0  0  0  0  0  0
   18.2480    9.4343   33.6766 N   0  0  0  0  0  0  0  0  0  0  0  0
   20.1940   10.4357   32.5279 C   0  0  0  0  0  0  0  0  0  0  0  0
   19.8720   11.8131   32.8833 C   0  0  0  0  0  0  0  0  0  0  0  0
   19.6248   12.9098   33.1606 N   0  0  0  0  0  0  0  0  0  0  0  0
   21.3998    6.6892   31.3168 N   0  0  0  0  0  0  0  0  0  0  0  0
   20.7829    5.5176   31.1304 C   0  0  0  0  0  0  0  0  0  0  0  0
   19.5708    5.3642   31.2684 O   0  0  0  0  0  0  0  0  0  0  0  0
   21.6349    4.3090   30.7130 C   0  0  0  0  0  0  0  0  0  0  0  0
   23.1282    4.5971   30.5483 C   0  0  0  0  0  0  0  0  0  0  0  0
   23.5814    5.4159   29.5068 C   0  0  0  0  0  0  0  0  0  0  0  0
   24.9398    5.7006   29.3735 C   0  0  0  0  0  0  0  0  0  0  0  0
   25.8537    5.1673   30.2817 C   0  0  0  0  0  0  0  0  0  0  0  0
   25.4095    4.3457   31.3184 C   0  0  0  0  0  0  0  0  0  0  0  0
   24.0502    4.0609   31.4520 C   0  0  0  0  0  0  0  0  0  0  0  0
   24.9104   12.0679   29.6628 H   0  0  0  0  0  0  0  0  0  0  0  0
   23.3437   12.9427   29.7442 H   0  0  0  0  0  0  0  0  0  0  0  0
   24.3164   12.7018   31.2350 H   0  0  0  0  0  0  0  0  0  0  0  0
   22.9834   10.4796   29.5813 H   0  0  0  0  0  0  0  0  0  0  0  0
   23.9561   10.2386   31.0721 H   0  0  0  0  0  0  0  0  0  0  0  0
   18.9158    7.6443   31.9618 H   0  0  0  0  0  0  0  0  0  0  0  0
   19.9052    7.4721   33.4511 H   0  0  0  0  0  0  0  0  0  0  0  0
   18.0364   10.3808   33.9202 H   0  0  0  0  0  0  0  0  0  0  0  0
   19.3432    4.4595   31.0888 H   0  0  0  0  0  0  0  0  0  0  0  0
   21.5203    3.5293   31.4804 H   0  0  0  0  0  0  0  0  0  0  0  0
   21.2511    3.9365   29.7518 H   0  0  0  0  0  0  0  0  0  0  0  0
   22.8746    5.8294   28.8026 H   0  0  0  0  0  0  0  0  0  0  0  0
   25.2835    6.3330   28.5683 H   0  0  0  0  0  0  0  0  0  0  0  0
   26.9058    5.3903   30.1827 H   0  0  0  0  0  0  0  0  0  0  0  0
   26.1189    3.9296   32.0184 H   0  0  0  0  0  0  0  0  0  0  0  0
   23.7095    3.4247   32.2555 H   0  0  0  0  0  0  0  0  0  0  0  0
  1  2  1  0  0  0  0
  2  3  1  0  0  0  0
  3  4  1  0  0  0  0
  4 10  2  0  0  0  0
  4  5  1  0  0  0  0
  5  6  2  0  0  0  0
  6  7  1  0  0  0  0
  6 13  1  0  0  0  0
  7  8  1  0  0  0  0
  8  9  2  0  0  0  0
  8 10  1  0  0  0  0
 10 11  1  0  0  0  0
 11 12  3  0  0  0  0
 13 14  2  0  0  0  0
 14 15  1  0  0  0  0
 14 16  1  0  0  0  0
 16 17  1  0  0  0  0
 17 22  2  0  0  0  0
 17 18  1  0  0  0  0
 18 19  2  0  0  0  0
 19 20  1  0  0  0  0
 20 21  2  0  0  0  0
 21 22  1  0  0  0  0
  1 23  1  0  0  0  0
  1 24  1  0  0  0  0
  1 25  1  0  0  0  0
  2 26  1  0  0  0  0
  2 27  1  0  0  0  0
  7 28  1  0  0  0  0
  7 29  1  0  0  0  0
  9 30  1  0  0  0  0
 15 31  1  0  0  0  0
 16 32  1  0  0  0  0
 16 33  1  0  0  0  0
 18 34  1  0  0  0  0
 19 35  1  0  0  0  0
 20 36  1  0  0  0  0
 21 37  1  0  0  0  0
 22 38  1  0  0  0  0
M  END
> <i_m_stars>
2

> <r_user_dG.exp>
-8.49337

$$$$
