18658-1
  -OEChem-05162309453D
 Structure written by MMmdl.
 47 48  0     0  0  0  0  0  0999 V2000
   24.2852   12.3288   28.3276 O   0  0  0  0  0  0  0  0  0  0  0  0
   23.5037   12.4810   29.5025 C   0  0  0  0  0  0  0  0  0  0  0  0
   22.9866   11.1257   30.0090 C   0  0  0  0  0  0  0  0  0  0  0  0
   22.1131   11.3519   31.1177 O   0  0  0  0  0  0  0  0  0  0  0  0
   21.3839   10.2942   31.6329 C   0  0  0  0  0  0  0  0  0  0  0  0
   21.7293    9.0437   31.2234 N   0  0  0  0  0  0  0  0  0  0  0  0
   20.9896    8.0072   31.6469 C   0  0  0  0  0  0  0  0  0  0  0  0
   19.9094    8.1489   32.5070 C   0  0  0  0  0  0  0  0  0  0  0  0
   19.5594    9.4227   32.9202 C   0  0  0  0  0  0  0  0  0  0  0  0
   18.4400    9.5048   33.7395 N   0  0  0  0  0  0  0  0  0  0  0  0
   20.3035   10.5324   32.4890 C   0  0  0  0  0  0  0  0  0  0  0  0
   19.9761   11.9037   32.8617 C   0  0  0  0  0  0  0  0  0  0  0  0
   19.7239   12.9956   33.1512 N   0  0  0  0  0  0  0  0  0  0  0  0
   21.4466    6.8222   31.1057 N   0  0  0  0  0  0  0  0  0  0  0  0
   20.8624    5.6231   31.0276 C   0  0  0  0  0  0  0  0  0  0  0  0
   19.7368    5.3649   31.4500 O   0  0  0  0  0  0  0  0  0  0  0  0
   21.6464    4.5487   30.2818 C   0  0  0  0  0  0  0  0  0  0  0  0
   23.0171    4.2597   30.8878 C   0  0  0  0  0  0  0  0  0  0  0  0
   24.1155    5.0842   30.5962 C   0  0  0  0  0  0  0  0  0  0  0  0
   23.8945    6.1740   29.7723 O   0  0  0  0  0  0  0  0  0  0  0  0
   24.9287    7.1387   29.5901 C   0  0  0  0  0  0  0  0  0  0  0  0
   25.3625    4.7657   31.1517 C   0  0  0  0  0  0  0  0  0  0  0  0
   25.4998    3.6732   32.0086 C   0  0  0  0  0  0  0  0  0  0  0  0
   24.4115    2.8577   32.3080 C   0  0  0  0  0  0  0  0  0  0  0  0
   23.1685    3.1576   31.7364 C   0  0  0  0  0  0  0  0  0  0  0  0
   24.6403    1.8060   33.1700 O   0  0  0  0  0  0  0  0  0  0  0  0
   23.7219    0.7155   33.1863 C   0  0  0  0  0  0  0  0  0  0  0  0
   24.5909   13.1802   28.0376 H   0  0  0  0  0  0  0  0  0  0  0  0
   24.1213   12.9443   30.2860 H   0  0  0  0  0  0  0  0  0  0  0  0
   22.6451   13.1315   29.2799 H   0  0  0  0  0  0  0  0  0  0  0  0
   22.4378   10.6150   29.2040 H   0  0  0  0  0  0  0  0  0  0  0  0
   23.8347   10.5019   30.3276 H   0  0  0  0  0  0  0  0  0  0  0  0
   19.3553    7.2859   32.8457 H   0  0  0  0  0  0  0  0  0  0  0  0
   18.2724   10.4606   33.9809 H   0  0  0  0  0  0  0  0  0  0  0  0
   17.6451    9.1391   33.2553 H   0  0  0  0  0  0  0  0  0  0  0  0
   22.3629    6.8688   30.7079 H   0  0  0  0  0  0  0  0  0  0  0  0
   21.0586    3.6190   30.2926 H   0  0  0  0  0  0  0  0  0  0  0  0
   21.7887    4.8805   29.2427 H   0  0  0  0  0  0  0  0  0  0  0  0
   24.5786    7.9281   28.9088 H   0  0  0  0  0  0  0  0  0  0  0  0
   25.1910    7.5828   30.5617 H   0  0  0  0  0  0  0  0  0  0  0  0
   25.8147    6.6493   29.1595 H   0  0  0  0  0  0  0  0  0  0  0  0
   26.2246    5.3713   30.9143 H   0  0  0  0  0  0  0  0  0  0  0  0
   26.4634    3.4570   32.4457 H   0  0  0  0  0  0  0  0  0  0  0  0
   22.3164    2.5304   31.9533 H   0  0  0  0  0  0  0  0  0  0  0  0
   24.0510   -0.0307   33.9245 H   0  0  0  0  0  0  0  0  0  0  0  0
   22.7213    1.0830   33.4577 H   0  0  0  0  0  0  0  0  0  0  0  0
   23.6846    0.2528   32.1890 H   0  0  0  0  0  0  0  0  0  0  0  0
  1  2  1  0  0  0  0
  2  3  1  0  0  0  0
  3  4  1  0  0  0  0
  4  5  1  0  0  0  0
  5 11  2  0  0  0  0
  5  6  1  0  0  0  0
  6  7  2  0  0  0  0
  7  8  1  0  0  0  0
  7 14  1  0  0  0  0
  8  9  2  0  0  0  0
  9 10  1  0  0  0  0
  9 11  1  0  0  0  0
 11 12  1  0  0  0  0
 12 13  3  0  0  0  0
 14 15  1  0  0  0  0
 15 16  2  0  0  0  0
 15 17  1  0  0  0  0
 17 18  1  0  0  0  0
 18 25  2  0  0  0  0
 18 19  1  0  0  0  0
 19 20  1  0  0  0  0
 19 22  2  0  0  0  0
 20 21  1  0  0  0  0
 22 23  1  0  0  0  0
 23 24  2  0  0  0  0
 24 25  1  0  0  0  0
 24 26  1  0  0  0  0
 26 27  1  0  0  0  0
  1 28  1  0  0  0  0
  2 29  1  0  0  0  0
  2 30  1  0  0  0  0
  3 31  1  0  0  0  0
  3 32  1  0  0  0  0
  8 33  1  0  0  0  0
 10 34  1  0  0  0  0
 10 35  1  0  0  0  0
 14 36  1  0  0  0  0
 17 37  1  0  0  0  0
 17 38  1  0  0  0  0
 21 39  1  0  0  0  0
 21 40  1  0  0  0  0
 21 41  1  0  0  0  0
 22 42  1  0  0  0  0
 23 43  1  0  0  0  0
 25 44  1  0  0  0  0
 27 45  1  0  0  0  0
 27 46  1  0  0  0  0
 27 47  1  0  0  0  0
M  END
> <i_m_stars>
0

> <r_user_dG.exp>
-9.699398

$$$$
18658-1
  -OEChem-05162309453D
 Structure written by MMmdl.
 47 48  0     0  0  0  0  0  0999 V2000
   24.2852   12.3288   28.3276 O   0  0  0  0  0  0  0  0  0  0  0  0
   23.5037   12.4810   29.5025 C   0  0  0  0  0  0  0  0  0  0  0  0
   22.9866   11.1257   30.0090 C   0  0  0  0  0  0  0  0  0  0  0  0
   22.1131   11.3519   31.1177 O   0  0  0  0  0  0  0  0  0  0  0  0
   21.3839   10.2942   31.6329 C   0  0  0  0  0  0  0  0  0  0  0  0
   21.7293    9.0437   31.2234 N   0  0  0  0  0  0  0  0  0  0  0  0
   20.9896    8.0072   31.6469 C   0  0  0  0  0  0  0  0  0  0  0  0
   19.9094    8.1489   32.5070 C   0  0  0  0  0  0  0  0  0  0  0  0
   19.5594    9.4227   32.9202 C   0  0  0  0  0  0  0  0  0  0  0  0
   18.4400    9.5048   33.7395 N   0  0  0  0  0  0  0  0  0  0  0  0
   20.3035   10.5324   32.4890 C   0  0  0  0  0  0  0  0  0  0  0  0
   19.9761   11.9037   32.8617 C   0  0  0  0  0  0  0  0  0  0  0  0
   19.7239   12.9956   33.1512 N   0  0  0  0  0  0  0  0  0  0  0  0
   21.4466    6.8222   31.1057 N   0  0  0  0  0  0  0  0  0  0  0  0
   20.8624    5.6231   31.0276 C   0  0  0  0  0  0  0  0  0  0  0  0
   19.7368    5.3649   31.4500 O   0  0  0  0  0  0  0  0  0  0  0  0
   21.6464    4.5487   30.2818 C   0  0  0  0  0  0  0  0  0  0  0  0
   23.0171    4.2597   30.8878 C   0  0  0  0  0  0  0  0  0  0  0  0
   24.1155    5.0842   30.5962 C   0  0  0  0  0  0  0  0  0  0  0  0
   23.8945    6.1740   29.7723 O   0  0  0  0  0  0  0  0  0  0  0  0
   24.9287    7.1387   29.5901 C   0  0  0  0  0  0  0  0  0  0  0  0
   25.3625    4.7657   31.1517 C   0  0  0  0  0  0  0  0  0  0  0  0
   25.4998    3.6732   32.0086 C   0  0  0  0  0  0  0  0  0  0  0  0
   24.4115    2.8577   32.3080 C   0  0  0  0  0  0  0  0  0  0  0  0
   23.1685    3.1576   31.7364 C   0  0  0  0  0  0  0  0  0  0  0  0
   24.6403    1.8060   33.1700 O   0  0  0  0  0  0  0  0  0  0  0  0
   23.7219    0.7155   33.1863 C   0  0  0  0  0  0  0  0  0  0  0  0
   24.5909   13.1802   28.0376 H   0  0  0  0  0  0  0  0  0  0  0  0
   24.1213   12.9443   30.2860 H   0  0  0  0  0  0  0  0  0  0  0  0
   22.6451   13.1315   29.2799 H   0  0  0  0  0  0  0  0  0  0  0  0
   22.4378   10.6150   29.2040 H   0  0  0  0  0  0  0  0  0  0  0  0
   23.8347   10.5019   30.3276 H   0  0  0  0  0  0  0  0  0  0  0  0
   19.3553    7.2859   32.8457 H   0  0  0  0  0  0  0  0  0  0  0  0
   18.2724   10.4606   33.9809 H   0  0  0  0  0  0  0  0  0  0  0  0
   17.6451    9.1391   33.2553 H   0  0  0  0  0  0  0  0  0  0  0  0
   19.5371    4.4513   31.2827 H   0  0  0  0  0  0  0  0  0  0  0  0
   21.0586    3.6190   30.2926 H   0  0  0  0  0  0  0  0  0  0  0  0
   21.7887    4.8805   29.2427 H   0  0  0  0  0  0  0  0  0  0  0  0
   24.5786    7.9281   28.9088 H   0  0  0  0  0  0  0  0  0  0  0  0
   25.1910    7.5828   30.5617 H   0  0  0  0  0  0  0  0  0  0  0  0
   25.8147    6.6493   29.1595 H   0  0  0  0  0  0  0  0  0  0  0  0
   26.2246    5.3713   30.9143 H   0  0  0  0  0  0  0  0  0  0  0  0
   26.4634    3.4570   32.4457 H   0  0  0  0  0  0  0  0  0  0  0  0
   22.3164    2.5304   31.9533 H   0  0  0  0  0  0  0  0  0  0  0  0
   24.0510   -0.0307   33.9245 H   0  0  0  0  0  0  0  0  0  0  0  0
   22.7213    1.0830   33.4577 H   0  0  0  0  0  0  0  0  0  0  0  0
   23.6846    0.2528   32.1890 H   0  0  0  0  0  0  0  0  0  0  0  0
  1  2  1  0  0  0  0
  2  3  1  0  0  0  0
  3  4  1  0  0  0  0
  4  5  1  0  0  0  0
  5 11  2  0  0  0  0
  5  6  1  0  0  0  0
  6  7  2  0  0  0  0
  7  8  1  0  0  0  0
  7 14  1  0  0  0  0
  8  9  2  0  0  0  0
  9 10  1  0  0  0  0
  9 11  1  0  0  0  0
 11 12  1  0  0  0  0
 12 13  3  0  0  0  0
 14 15  2  0  0  0  0
 15 16  1  0  0  0  0
 15 17  1  0  0  0  0
 17 18  1  0  0  0  0
 18 25  2  0  0  0  0
 18 19  1  0  0  0  0
 19 20  1  0  0  0  0
 19 22  2  0  0  0  0
 20 21  1  0  0  0  0
 22 23  1  0  0  0  0
 23 24  2  0  0  0  0
 24 25  1  0  0  0  0
 24 26  1  0  0  0  0
 26 27  1  0  0  0  0
  1 28  1  0  0  0  0
  2 29  1  0  0  0  0
  2 30  1  0  0  0  0
  3 31  1  0  0  0  0
  3 32  1  0  0  0  0
  8 33  1  0  0  0  0
 10 34  1  0  0  0  0
 10 35  1  0  0  0  0
 16 36  1  0  0  0  0
 17 37  1  0  0  0  0
 17 38  1  0  0  0  0
 21 39  1  0  0  0  0
 21 40  1  0  0  0  0
 21 41  1  0  0  0  0
 22 42  1  0  0  0  0
 23 43  1  0  0  0  0
 25 44  1  0  0  0  0
 27 45  1  0  0  0  0
 27 46  1  0  0  0  0
 27 47  1  0  0  0  0
M  END
> <i_m_stars>
0

> <r_user_dG.exp>
-9.699398

$$$$
18658-1
  -OEChem-05162309453D
 Structure written by MMmdl.
 47 48  0     0  0  0  0  0  0999 V2000
   24.2852   12.3288   28.3276 O   0  0  0  0  0  0  0  0  0  0  0  0
   23.5037   12.4810   29.5025 C   0  0  0  0  0  0  0  0  0  0  0  0
   22.9866   11.1257   30.0090 C   0  0  0  0  0  0  0  0  0  0  0  0
   22.1131   11.3519   31.1177 O   0  0  0  0  0  0  0  0  0  0  0  0
   21.3839   10.2942   31.6329 C   0  0  0  0  0  0  0  0  0  0  0  0
   21.7293    9.0437   31.2234 N   0  0  0  0  0  0  0  0  0  0  0  0
   20.9896    8.0072   31.6469 C   0  0  0  0  0  0  0  0  0  0  0  0
   19.9094    8.1489   32.5070 C   0  0  0  0  0  0  0  0  0  0  0  0
   19.5594    9.4227   32.9202 C   0  0  0  0  0  0  0  0  0  0  0  0
   18.4400    9.5048   33.7395 N   0  0  0  0  0  0  0  0  0  0  0  0
   20.3035   10.5324   32.4890 C   0  0  0  0  0  0  0  0  0  0  0  0
   19.9761   11.9037   32.8617 C   0  0  0  0  0  0  0  0  0  0  0  0
   19.7239   12.9956   33.1512 N   0  0  0  0  0  0  0  0  0  0  0  0
   21.4466    6.8222   31.1057 N   0  0  0  0  0  0  0  0  0  0  0  0
   20.8624    5.6231   31.0276 C   0  0  0  0  0  0  0  0  0  0  0  0
   19.7368    5.3649   31.4500 O   0  0  0  0  0  0  0  0  0  0  0  0
   21.6464    4.5487   30.2818 C   0  0  0  0  0  0  0  0  0  0  0  0
   23.0171    4.2597   30.8878 C   0  0  0  0  0  0  0  0  0  0  0  0
   24.1155    5.0842   30.5962 C   0  0  0  0  0  0  0  0  0  0  0  0
   23.8945    6.1740   29.7723 O   0  0  0  0  0  0  0  0  0  0  0  0
   24.9287    7.1387   29.5901 C   0  0  0  0  0  0  0  0  0  0  0  0
   25.3625    4.7657   31.1517 C   0  0  0  0  0  0  0  0  0  0  0  0
   25.4998    3.6732   32.0086 C   0  0  0  0  0  0  0  0  0  0  0  0
   24.4115    2.8577   32.3080 C   0  0  0  0  0  0  0  0  0  0  0  0
   23.1685    3.1576   31.7364 C   0  0  0  0  0  0  0  0  0  0  0  0
   24.6403    1.8060   33.1700 O   0  0  0  0  0  0  0  0  0  0  0  0
   23.7219    0.7155   33.1863 C   0  0  0  0  0  0  0  0  0  0  0  0
   24.5909   13.1802   28.0376 H   0  0  0  0  0  0  0  0  0  0  0  0
   24.1213   12.9443   30.2860 H   0  0  0  0  0  0  0  0  0  0  0  0
   22.6451   13.1315   29.2799 H   0  0  0  0  0  0  0  0  0  0  0  0
   22.4378   10.6150   29.2040 H   0  0  0  0  0  0  0  0  0  0  0  0
   23.8347   10.5019   30.3276 H   0  0  0  0  0  0  0  0  0  0  0  0
   22.5150    8.9004   30.6216 H   0  0  0  0  0  0  0  0  0  0  0  0
   19.3553    7.2859   32.8457 H   0  0  0  0  0  0  0  0  0  0  0  0
   18.2254   10.4496   33.9870 H   0  0  0  0  0  0  0  0  0  0  0  0
   22.3629    6.8688   30.7079 H   0  0  0  0  0  0  0  0  0  0  0  0
   21.0586    3.6190   30.2926 H   0  0  0  0  0  0  0  0  0  0  0  0
   21.7887    4.8805   29.2427 H   0  0  0  0  0  0  0  0  0  0  0  0
   24.5786    7.9281   28.9088 H   0  0  0  0  0  0  0  0  0  0  0  0
   25.1910    7.5828   30.5617 H   0  0  0  0  0  0  0  0  0  0  0  0
   25.8147    6.6493   29.1595 H   0  0  0  0  0  0  0  0  0  0  0  0
   26.2246    5.3713   30.9143 H   0  0  0  0  0  0  0  0  0  0  0  0
   26.4634    3.4570   32.4457 H   0  0  0  0  0  0  0  0  0  0  0  0
   22.3164    2.5304   31.9533 H   0  0  0  0  0  0  0  0  0  0  0  0
   24.0510   -0.0307   33.9245 H   0  0  0  0  0  0  0  0  0  0  0  0
   22.7213    1.0830   33.4577 H   0  0  0  0  0  0  0  0  0  0  0  0
   23.6846    0.2528   32.1890 H   0  0  0  0  0  0  0  0  0  0  0  0
  1  2  1  0  0  0  0
  2  3  1  0  0  0  0
  3  4  1  0  0  0  0
  4  5  1  0  0  0  0
  5 11  2  0  0  0  0
  5  6  1  0  0  0  0
  6  7  1  0  0  0  0
  7  8  2  0  0  0  0
  7 14  1  0  0  0  0
  8  9  1  0  0  0  0
  9 10  2  0  0  0  0
  9 11  1  0  0  0  0
 11 12  1  0  0  0  0
 12 13  3  0  0  0  0
 14 15  1  0  0  0  0
 15 16  2  0  0  0  0
 15 17  1  0  0  0  0
 17 18  1  0  0  0  0
 18 25  2  0  0  0  0
 18 19  1  0  0  0  0
 19 20  1  0  0  0  0
 19 22  2  0  0  0  0
 20 21  1  0  0  0  0
 22 23  1  0  0  0  0
 23 24  2  0  0  0  0
 24 25  1  0  0  0  0
 24 26  1  0  0  0  0
 26 27  1  0  0  0  0
  1 28  1  0  0  0  0
  2 29  1  0  0  0  0
  2 30  1  0  0  0  0
  3 31  1  0  0  0  0
  3 32  1  0  0  0  0
  6 33  1  0  0  0  0
  8 34  1  0  0  0  0
 10 35  1  0  0  0  0
 14 36  1  0  0  0  0
 17 37  1  0  0  0  0
 17 38  1  0  0  0  0
 21 39  1  0  0  0  0
 21 40  1  0  0  0  0
 21 41  1  0  0  0  0
 22 42  1  0  0  0  0
 23 43  1  0  0  0  0
 25 44  1  0  0  0  0
 27 45  1  0  0  0  0
 27 46  1  0  0  0  0
 27 47  1  0  0  0  0
M  END
> <i_m_stars>
0

> <r_user_dG.exp>
-9.699398

$$$$
18658-1
  -OEChem-05162309453D
 Structure written by MMmdl.
 47 48  0     0  0  0  0  0  0999 V2000
   24.2852   12.3288   28.3276 O   0  0  0  0  0  0  0  0  0  0  0  0
   23.5037   12.4810   29.5025 C   0  0  0  0  0  0  0  0  0  0  0  0
   22.9866   11.1257   30.0090 C   0  0  0  0  0  0  0  0  0  0  0  0
   22.1131   11.3519   31.1177 O   0  0  0  0  0  0  0  0  0  0  0  0
   21.3839   10.2942   31.6329 C   0  0  0  0  0  0  0  0  0  0  0  0
   21.7293    9.0437   31.2234 N   0  0  0  0  0  0  0  0  0  0  0  0
   20.9896    8.0072   31.6469 C   0  0  0  0  0  0  0  0  0  0  0  0
   19.9094    8.1489   32.5070 C   0  0  0  0  0  0  0  0  0  0  0  0
   19.5594    9.4227   32.9202 C   0  0  0  0  0  0  0  0  0  0  0  0
   18.4400    9.5048   33.7395 N   0  0  0  0  0  0  0  0  0  0  0  0
   20.3035   10.5324   32.4890 C   0  0  0  0  0  0  0  0  0  0  0  0
   19.9761   11.9037   32.8617 C   0  0  0  0  0  0  0  0  0  0  0  0
   19.7239   12.9956   33.1512 N   0  0  0  0  0  0  0  0  0  0  0  0
   21.4466    6.8222   31.1057 N   0  0  0  0  0  0  0  0  0  0  0  0
   20.8624    5.6231   31.0276 C   0  0  0  0  0  0  0  0  0  0  0  0
   19.7368    5.3649   31.4500 O   0  0  0  0  0  0  0  0  0  0  0  0
   21.6464    4.5487   30.2818 C   0  0  0  0  0  0  0  0  0  0  0  0
   23.0171    4.2597   30.8878 C   0  0  0  0  0  0  0  0  0  0  0  0
   24.1155    5.0842   30.5962 C   0  0  0  0  0  0  0  0  0  0  0  0
   23.8945    6.1740   29.7723 O   0  0  0  0  0  0  0  0  0  0  0  0
   24.9287    7.1387   29.5901 C   0  0  0  0  0  0  0  0  0  0  0  0
   25.3625    4.7657   31.1517 C   0  0  0  0  0  0  0  0  0  0  0  0
   25.4998    3.6732   32.0086 C   0  0  0  0  0  0  0  0  0  0  0  0
   24.4115    2.8577   32.3080 C   0  0  0  0  0  0  0  0  0  0  0  0
   23.1685    3.1576   31.7364 C   0  0  0  0  0  0  0  0  0  0  0  0
   24.6403    1.8060   33.1700 O   0  0  0  0  0  0  0  0  0  0  0  0
   23.7219    0.7155   33.1863 C   0  0  0  0  0  0  0  0  0  0  0  0
   24.5909   13.1802   28.0376 H   0  0  0  0  0  0  0  0  0  0  0  0
   24.1213   12.9443   30.2860 H   0  0  0  0  0  0  0  0  0  0  0  0
   22.6451   13.1315   29.2799 H   0  0  0  0  0  0  0  0  0  0  0  0
   22.4378   10.6150   29.2040 H   0  0  0  0  0  0  0  0  0  0  0  0
   23.8347   10.5019   30.3276 H   0  0  0  0  0  0  0  0  0  0  0  0
   22.5150    8.9004   30.6216 H   0  0  0  0  0  0  0  0  0  0  0  0
   19.3553    7.2859   32.8457 H   0  0  0  0  0  0  0  0  0  0  0  0
   18.2724   10.4606   33.9809 H   0  0  0  0  0  0  0  0  0  0  0  0
   17.6451    9.1391   33.2553 H   0  0  0  0  0  0  0  0  0  0  0  0
   21.0586    3.6190   30.2926 H   0  0  0  0  0  0  0  0  0  0  0  0
   21.7887    4.8805   29.2427 H   0  0  0  0  0  0  0  0  0  0  0  0
   24.5786    7.9281   28.9088 H   0  0  0  0  0  0  0  0  0  0  0  0
   25.1910    7.5828   30.5617 H   0  0  0  0  0  0  0  0  0  0  0  0
   25.8147    6.6493   29.1595 H   0  0  0  0  0  0  0  0  0  0  0  0
   26.2246    5.3713   30.9143 H   0  0  0  0  0  0  0  0  0  0  0  0
   26.4634    3.4570   32.4457 H   0  0  0  0  0  0  0  0  0  0  0  0
   22.3164    2.5304   31.9533 H   0  0  0  0  0  0  0  0  0  0  0  0
   24.0510   -0.0307   33.9245 H   0  0  0  0  0  0  0  0  0  0  0  0
   22.7213    1.0830   33.4577 H   0  0  0  0  0  0  0  0  0  0  0  0
   23.6846    0.2528   32.1890 H   0  0  0  0  0  0  0  0  0  0  0  0
  1  2  1  0  0  0  0
  2  3  1  0  0  0  0
  3  4  1  0  0  0  0
  4  5  1  0  0  0  0
  5 11  2  0  0  0  0
  5  6  1  0  0  0  0
  6  7  1  0  0  0  0
  7  8  1  0  0  0  0
  7 14  2  0  0  0  0
  8  9  2  0  0  0  0
  9 10  1  0  0  0  0
  9 11  1  0  0  0  0
 11 12  1  0  0  0  0
 12 13  3  0  0  0  0
 14 15  1  0  0  0  0
 15 16  2  0  0  0  0
 15 17  1  0  0  0  0
 17 18  1  0  0  0  0
 18 25  2  0  0  0  0
 18 19  1  0  0  0  0
 19 20  1  0  0  0  0
 19 22  2  0  0  0  0
 20 21  1  0  0  0  0
 22 23  1  0  0  0  0
 23 24  2  0  0  0  0
 24 25  1  0  0  0  0
 24 26  1  0  0  0  0
 26 27  1  0  0  0  0
  1 28  1  0  0  0  0
  2 29  1  0  0  0  0
  2 30  1  0  0  0  0
  3 31  1  0  0  0  0
  3 32  1  0  0  0  0
  6 33  1  0  0  0  0
  8 34  1  0  0  0  0
 10 35  1  0  0  0  0
 10 36  1  0  0  0  0
 17 37  1  0  0  0  0
 17 38  1  0  0  0  0
 21 39  1  0  0  0  0
 21 40  1  0  0  0  0
 21 41  1  0  0  0  0
 22 42  1  0  0  0  0
 23 43  1  0  0  0  0
 25 44  1  0  0  0  0
 27 45  1  0  0  0  0
 27 46  1  0  0  0  0
 27 47  1  0  0  0  0
M  END
> <i_m_stars>
0

> <r_user_dG.exp>
-9.699398

$$$$
18658-1
  -OEChem-05162309453D
 Structure written by MMmdl.
 47 48  0     0  0  0  0  0  0999 V2000
   24.2852   12.3288   28.3276 O   0  0  0  0  0  0  0  0  0  0  0  0
   23.5037   12.4810   29.5025 C   0  0  0  0  0  0  0  0  0  0  0  0
   22.9866   11.1257   30.0090 C   0  0  0  0  0  0  0  0  0  0  0  0
   22.1131   11.3519   31.1177 O   0  0  0  0  0  0  0  0  0  0  0  0
   21.3839   10.2942   31.6329 C   0  0  0  0  0  0  0  0  0  0  0  0
   21.7293    9.0437   31.2234 N   0  0  0  0  0  0  0  0  0  0  0  0
   20.9896    8.0072   31.6469 C   0  0  0  0  0  0  0  0  0  0  0  0
   19.9094    8.1489   32.5070 C   0  0  0  0  0  0  0  0  0  0  0  0
   19.5594    9.4227   32.9202 C   0  0  0  0  0  0  0  0  0  0  0  0
   18.4400    9.5048   33.7395 N   0  0  0  0  0  0  0  0  0  0  0  0
   20.3035   10.5324   32.4890 C   0  0  0  0  0  0  0  0  0  0  0  0
   19.9761   11.9037   32.8617 C   0  0  0  0  0  0  0  0  0  0  0  0
   19.7239   12.9956   33.1512 N   0  0  0  0  0  0  0  0  0  0  0  0
   21.4466    6.8222   31.1057 N   0  0  0  0  0  0  0  0  0  0  0  0
   20.8624    5.6231   31.0276 C   0  0  0  0  0  0  0  0  0  0  0  0
   19.7368    5.3649   31.4500 O   0  0  0  0  0  0  0  0  0  0  0  0
   21.6464    4.5487   30.2818 C   0  0  0  0  0  0  0  0  0  0  0  0
   23.0171    4.2597   30.8878 C   0  0  0  0  0  0  0  0  0  0  0  0
   24.1155    5.0842   30.5962 C   0  0  0  0  0  0  0  0  0  0  0  0
   23.8945    6.1740   29.7723 O   0  0  0  0  0  0  0  0  0  0  0  0
   24.9287    7.1387   29.5901 C   0  0  0  0  0  0  0  0  0  0  0  0
   25.3625    4.7657   31.1517 C   0  0  0  0  0  0  0  0  0  0  0  0
   25.4998    3.6732   32.0086 C   0  0  0  0  0  0  0  0  0  0  0  0
   24.4115    2.8577   32.3080 C   0  0  0  0  0  0  0  0  0  0  0  0
   23.1685    3.1576   31.7364 C   0  0  0  0  0  0  0  0  0  0  0  0
   24.6403    1.8060   33.1700 O   0  0  0  0  0  0  0  0  0  0  0  0
   23.7219    0.7155   33.1863 C   0  0  0  0  0  0  0  0  0  0  0  0
   24.5909   13.1802   28.0376 H   0  0  0  0  0  0  0  0  0  0  0  0
   24.1213   12.9443   30.2860 H   0  0  0  0  0  0  0  0  0  0  0  0
   22.6451   13.1315   29.2799 H   0  0  0  0  0  0  0  0  0  0  0  0
   22.4378   10.6150   29.2040 H   0  0  0  0  0  0  0  0  0  0  0  0
   23.8347   10.5019   30.3276 H   0  0  0  0  0  0  0  0  0  0  0  0
   22.5150    8.9004   30.6216 H   0  0  0  0  0  0  0  0  0  0  0  0
   19.3553    7.2859   32.8457 H   0  0  0  0  0  0  0  0  0  0  0  0
   18.2254   10.4496   33.9870 H   0  0  0  0  0  0  0  0  0  0  0  0
   19.5371    4.4513   31.2827 H   0  0  0  0  0  0  0  0  0  0  0  0
   21.0586    3.6190   30.2926 H   0  0  0  0  0  0  0  0  0  0  0  0
   21.7887    4.8805   29.2427 H   0  0  0  0  0  0  0  0  0  0  0  0
   24.5786    7.9281   28.9088 H   0  0  0  0  0  0  0  0  0  0  0  0
   25.1910    7.5828   30.5617 H   0  0  0  0  0  0  0  0  0  0  0  0
   25.8147    6.6493   29.1595 H   0  0  0  0  0  0  0  0  0  0  0  0
   26.2246    5.3713   30.9143 H   0  0  0  0  0  0  0  0  0  0  0  0
   26.4634    3.4570   32.4457 H   0  0  0  0  0  0  0  0  0  0  0  0
   22.3164    2.5304   31.9533 H   0  0  0  0  0  0  0  0  0  0  0  0
   24.0510   -0.0307   33.9245 H   0  0  0  0  0  0  0  0  0  0  0  0
   22.7213    1.0830   33.4577 H   0  0  0  0  0  0  0  0  0  0  0  0
   23.6846    0.2528   32.1890 H   0  0  0  0  0  0  0  0  0  0  0  0
  1  2  1  0  0  0  0
  2  3  1  0  0  0  0
  3  4  1  0  0  0  0
  4  5  1  0  0  0  0
  5 11  2  0  0  0  0
  5  6  1  0  0  0  0
  6  7  1  0  0  0  0
  7  8  2  0  0  0  0
  7 14  1  0  0  0  0
  8  9  1  0  0  0  0
  9 10  2  0  0  0  0
  9 11  1  0  0  0  0
 11 12  1  0  0  0  0
 12 13  3  0  0  0  0
 14 15  2  0  0  0  0
 15 16  1  0  0  0  0
 15 17  1  0  0  0  0
 17 18  1  0  0  0  0
 18 25  2  0  0  0  0
 18 19  1  0  0  0  0
 19 20  1  0  0  0  0
 19 22  2  0  0  0  0
 20 21  1  0  0  0  0
 22 23  1  0  0  0  0
 23 24  2  0  0  0  0
 24 25  1  0  0  0  0
 24 26  1  0  0  0  0
 26 27  1  0  0  0  0
  1 28  1  0  0  0  0
  2 29  1  0  0  0  0
  2 30  1  0  0  0  0
  3 31  1  0  0  0  0
  3 32  1  0  0  0  0
  6 33  1  0  0  0  0
  8 34  1  0  0  0  0
 10 35  1  0  0  0  0
 16 36  1  0  0  0  0
 17 37  1  0  0  0  0
 17 38  1  0  0  0  0
 21 39  1  0  0  0  0
 21 40  1  0  0  0  0
 21 41  1  0  0  0  0
 22 42  1  0  0  0  0
 23 43  1  0  0  0  0
 25 44  1  0  0  0  0
 27 45  1  0  0  0  0
 27 46  1  0  0  0  0
 27 47  1  0  0  0  0
M  END
> <i_m_stars>
0

> <r_user_dG.exp>
-9.699398

$$$$
18658-1
  -OEChem-05162309453D
 Structure written by MMmdl.
 47 48  0     1  0  0  0  0  0999 V2000
   24.2852   12.3288   28.3276 O   0  0  0  0  0  0  0  0  0  0  0  0
   23.5037   12.4810   29.5025 C   0  0  0  0  0  0  0  0  0  0  0  0
   22.9866   11.1257   30.0090 C   0  0  0  0  0  0  0  0  0  0  0  0
   22.1131   11.3519   31.1177 O   0  0  0  0  0  0  0  0  0  0  0  0
   21.3839   10.2942   31.6329 C   0  0  0  0  0  0  0  0  0  0  0  0
   21.7293    9.0437   31.2234 N   0  0  0  0  0  0  0  0  0  0  0  0
   20.9896    8.0072   31.6469 C   0  0  0  0  0  0  0  0  0  0  0  0
   19.9094    8.1489   32.5070 C   0  0  0  0  0  0  0  0  0  0  0  0
   19.5594    9.4227   32.9202 C   0  0  0  0  0  0  0  0  0  0  0  0
   18.4400    9.5048   33.7395 N   0  0  0  0  0  0  0  0  0  0  0  0
   20.3035   10.5324   32.4890 C   0  0  3  0  0  0  0  0  0  0  0  0
   19.9761   11.9037   32.8617 C   0  0  0  0  0  0  0  0  0  0  0  0
   19.7239   12.9956   33.1512 N   0  0  0  0  0  0  0  0  0  0  0  0
   21.4466    6.8222   31.1057 N   0  0  0  0  0  0  0  0  0  0  0  0
   20.8624    5.6231   31.0276 C   0  0  0  0  0  0  0  0  0  0  0  0
   19.7368    5.3649   31.4500 O   0  0  0  0  0  0  0  0  0  0  0  0
   21.6464    4.5487   30.2818 C   0  0  0  0  0  0  0  0  0  0  0  0
   23.0171    4.2597   30.8878 C   0  0  0  0  0  0  0  0  0  0  0  0
   24.1155    5.0842   30.5962 C   0  0  0  0  0  0  0  0  0  0  0  0
   23.8945    6.1740   29.7723 O   0  0  0  0  0  0  0  0  0  0  0  0
   24.9287    7.1387   29.5901 C   0  0  0  0  0  0  0  0  0  0  0  0
   25.3625    4.7657   31.1517 C   0  0  0  0  0  0  0  0  0  0  0  0
   25.4998    3.6732   32.0086 C   0  0  0  0  0  0  0  0  0  0  0  0
   24.4115    2.8577   32.3080 C   0  0  0  0  0  0  0  0  0  0  0  0
   23.1685    3.1576   31.7364 C   0  0  0  0  0  0  0  0  0  0  0  0
   24.6403    1.8060   33.1700 O   0  0  0  0  0  0  0  0  0  0  0  0
   23.7219    0.7155   33.1863 C   0  0  0  0  0  0  0  0  0  0  0  0
   24.5909   13.1802   28.0376 H   0  0  0  0  0  0  0  0  0  0  0  0
   24.1213   12.9443   30.2860 H   0  0  0  0  0  0  0  0  0  0  0  0
   22.6451   13.1315   29.2799 H   0  0  0  0  0  0  0  0  0  0  0  0
   22.4378   10.6150   29.2040 H   0  0  0  0  0  0  0  0  0  0  0  0
   23.8347   10.5019   30.3276 H   0  0  0  0  0  0  0  0  0  0  0  0
   19.0324    7.7187   32.0012 H   0  0  0  0  0  0  0  0  0  0  0  0
   20.1347    7.5642   33.4111 H   0  0  0  0  0  0  0  0  0  0  0  0
   18.2254   10.4496   33.9870 H   0  0  0  0  0  0  0  0  0  0  0  0
   20.9640   10.4421   33.3640 H   0  0  0  0  0  0  0  0  0  0  0  0
   21.0586    3.6190   30.2926 H   0  0  0  0  0  0  0  0  0  0  0  0
   21.7887    4.8805   29.2427 H   0  0  0  0  0  0  0  0  0  0  0  0
   24.5786    7.9281   28.9088 H   0  0  0  0  0  0  0  0  0  0  0  0
   25.1910    7.5828   30.5617 H   0  0  0  0  0  0  0  0  0  0  0  0
   25.8147    6.6493   29.1595 H   0  0  0  0  0  0  0  0  0  0  0  0
   26.2246    5.3713   30.9143 H   0  0  0  0  0  0  0  0  0  0  0  0
   26.4634    3.4570   32.4457 H   0  0  0  0  0  0  0  0  0  0  0  0
   22.3164    2.5304   31.9533 H   0  0  0  0  0  0  0  0  0  0  0  0
   24.0510   -0.0307   33.9245 H   0  0  0  0  0  0  0  0  0  0  0  0
   22.7213    1.0830   33.4577 H   0  0  0  0  0  0  0  0  0  0  0  0
   23.6846    0.2528   32.1890 H   0  0  0  0  0  0  0  0  0  0  0  0
  1  2  1  0  0  0  0
  2  3  1  0  0  0  0
  3  4  1  0  0  0  0
  4  5  1  0  0  0  0
  5 11  1  0  0  0  0
  5  6  2  0  0  0  0
  6  7  1  0  0  0  0
  7  8  1  0  0  0  0
  7 14  2  0  0  0  0
  8  9  1  0  0  0  0
  9 10  2  0  0  0  0
  9 11  1  0  0  0  0
 11 12  1  0  0  0  0
 12 13  3  0  0  0  0
 14 15  1  0  0  0  0
 15 16  2  0  0  0  0
 15 17  1  0  0  0  0
 17 18  1  0  0  0  0
 18 25  2  0  0  0  0
 18 19  1  0  0  0  0
 19 20  1  0  0  0  0
 19 22  2  0  0  0  0
 20 21  1  0  0  0  0
 22 23  1  0  0  0  0
 23 24  2  0  0  0  0
 24 25  1  0  0  0  0
 24 26  1  0  0  0  0
 26 27  1  0  0  0  0
  1 28  1  0  0  0  0
  2 29  1  0  0  0  0
  2 30  1  0  0  0  0
  3 31  1  0  0  0  0
  3 32  1  0  0  0  0
  8 33  1  0  0  0  0
  8 34  1  0  0  0  0
 10 35  1  0  0  0  0
 11 36  1  0  0  0  0
 17 37  1  0  0  0  0
 17 38  1  0  0  0  0
 21 39  1  0  0  0  0
 21 40  1  0  0  0  0
 21 41  1  0  0  0  0
 22 42  1  0  0  0  0
 23 43  1  0  0  0  0
 25 44  1  0  0  0  0
 27 45  1  0  0  0  0
 27 46  1  0  0  0  0
 27 47  1  0  0  0  0
M  END
> <i_m_stars>
0

> <r_user_dG.exp>
-9.699398

$$$$
18658-1
  -OEChem-05162309453D
 Structure written by MMmdl.
 47 48  0     1  0  0  0  0  0999 V2000
   24.2852   12.3288   28.3276 O   0  0  0  0  0  0  0  0  0  0  0  0
   23.5037   12.4810   29.5025 C   0  0  0  0  0  0  0  0  0  0  0  0
   22.9866   11.1257   30.0090 C   0  0  0  0  0  0  0  0  0  0  0  0
   22.1131   11.3519   31.1177 O   0  0  0  0  0  0  0  0  0  0  0  0
   21.3839   10.2942   31.6329 C   0  0  0  0  0  0  0  0  0  0  0  0
   21.7293    9.0437   31.2234 N   0  0  0  0  0  0  0  0  0  0  0  0
   20.9896    8.0072   31.6469 C   0  0  0  0  0  0  0  0  0  0  0  0
   19.9094    8.1489   32.5070 C   0  0  0  0  0  0  0  0  0  0  0  0
   19.5594    9.4227   32.9202 C   0  0  0  0  0  0  0  0  0  0  0  0
   18.4400    9.5048   33.7395 N   0  0  0  0  0  0  0  0  0  0  0  0
   20.3035   10.5324   32.4890 C   0  0  3  0  0  0  0  0  0  0  0  0
   19.9761   11.9037   32.8617 C   0  0  0  0  0  0  0  0  0  0  0  0
   19.7239   12.9956   33.1512 N   0  0  0  0  0  0  0  0  0  0  0  0
   21.4466    6.8222   31.1057 N   0  0  0  0  0  0  0  0  0  0  0  0
   20.8624    5.6231   31.0276 C   0  0  0  0  0  0  0  0  0  0  0  0
   19.7368    5.3649   31.4500 O   0  0  0  0  0  0  0  0  0  0  0  0
   21.6464    4.5487   30.2818 C   0  0  0  0  0  0  0  0  0  0  0  0
   23.0171    4.2597   30.8878 C   0  0  0  0  0  0  0  0  0  0  0  0
   24.1155    5.0842   30.5962 C   0  0  0  0  0  0  0  0  0  0  0  0
   23.8945    6.1740   29.7723 O   0  0  0  0  0  0  0  0  0  0  0  0
   24.9287    7.1387   29.5901 C   0  0  0  0  0  0  0  0  0  0  0  0
   25.3625    4.7657   31.1517 C   0  0  0  0  0  0  0  0  0  0  0  0
   25.4998    3.6732   32.0086 C   0  0  0  0  0  0  0  0  0  0  0  0
   24.4115    2.8577   32.3080 C   0  0  0  0  0  0  0  0  0  0  0  0
   23.1685    3.1576   31.7364 C   0  0  0  0  0  0  0  0  0  0  0  0
   24.6403    1.8060   33.1700 O   0  0  0  0  0  0  0  0  0  0  0  0
   23.7219    0.7155   33.1863 C   0  0  0  0  0  0  0  0  0  0  0  0
   24.5909   13.1802   28.0376 H   0  0  0  0  0  0  0  0  0  0  0  0
   24.1213   12.9443   30.2860 H   0  0  0  0  0  0  0  0  0  0  0  0
   22.6451   13.1315   29.2799 H   0  0  0  0  0  0  0  0  0  0  0  0
   22.4378   10.6150   29.2040 H   0  0  0  0  0  0  0  0  0  0  0  0
   23.8347   10.5019   30.3276 H   0  0  0  0  0  0  0  0  0  0  0  0
   19.3553    7.2859   32.8457 H   0  0  0  0  0  0  0  0  0  0  0  0
   18.2254   10.4496   33.9870 H   0  0  0  0  0  0  0  0  0  0  0  0
   20.9640   10.4421   33.3640 H   0  0  0  0  0  0  0  0  0  0  0  0
   22.3629    6.8688   30.7079 H   0  0  0  0  0  0  0  0  0  0  0  0
   21.0586    3.6190   30.2926 H   0  0  0  0  0  0  0  0  0  0  0  0
   21.7887    4.8805   29.2427 H   0  0  0  0  0  0  0  0  0  0  0  0
   24.5786    7.9281   28.9088 H   0  0  0  0  0  0  0  0  0  0  0  0
   25.1910    7.5828   30.5617 H   0  0  0  0  0  0  0  0  0  0  0  0
   25.8147    6.6493   29.1595 H   0  0  0  0  0  0  0  0  0  0  0  0
   26.2246    5.3713   30.9143 H   0  0  0  0  0  0  0  0  0  0  0  0
   26.4634    3.4570   32.4457 H   0  0  0  0  0  0  0  0  0  0  0  0
   22.3164    2.5304   31.9533 H   0  0  0  0  0  0  0  0  0  0  0  0
   24.0510   -0.0307   33.9245 H   0  0  0  0  0  0  0  0  0  0  0  0
   22.7213    1.0830   33.4577 H   0  0  0  0  0  0  0  0  0  0  0  0
   23.6846    0.2528   32.1890 H   0  0  0  0  0  0  0  0  0  0  0  0
  1  2  1  0  0  0  0
  2  3  1  0  0  0  0
  3  4  1  0  0  0  0
  4  5  1  0  0  0  0
  5 11  1  0  0  0  0
  5  6  2  0  0  0  0
  6  7  1  0  0  0  0
  7  8  2  0  0  0  0
  7 14  1  0  0  0  0
  8  9  1  0  0  0  0
  9 10  2  0  0  0  0
  9 11  1  0  0  0  0
 11 12  1  0  0  0  0
 12 13  3  0  0  0  0
 14 15  1  0  0  0  0
 15 16  2  0  0  0  0
 15 17  1  0  0  0  0
 17 18  1  0  0  0  0
 18 25  2  0  0  0  0
 18 19  1  0  0  0  0
 19 20  1  0  0  0  0
 19 22  2  0  0  0  0
 20 21  1  0  0  0  0
 22 23  1  0  0  0  0
 23 24  2  0  0  0  0
 24 25  1  0  0  0  0
 24 26  1  0  0  0  0
 26 27  1  0  0  0  0
  1 28  1  0  0  0  0
  2 29  1  0  0  0  0
  2 30  1  0  0  0  0
  3 31  1  0  0  0  0
  3 32  1  0  0  0  0
  8 33  1  0  0  0  0
 10 34  1  0  0  0  0
 11 35  1  0  0  0  0
 14 36  1  0  0  0  0
 17 37  1  0  0  0  0
 17 38  1  0  0  0  0
 21 39  1  0  0  0  0
 21 40  1  0  0  0  0
 21 41  1  0  0  0  0
 22 42  1  0  0  0  0
 23 43  1  0  0  0  0
 25 44  1  0  0  0  0
 27 45  1  0  0  0  0
 27 46  1  0  0  0  0
 27 47  1  0  0  0  0
M  END
> <i_m_stars>
0

> <r_user_dG.exp>
-9.699398

$$$$
18658-1
  -OEChem-05162309453D
 Structure written by MMmdl.
 47 48  0     0  0  0  0  0  0999 V2000
   24.2852   12.3288   28.3276 O   0  0  0  0  0  0  0  0  0  0  0  0
   23.5037   12.4810   29.5025 C   0  0  0  0  0  0  0  0  0  0  0  0
   22.9866   11.1257   30.0090 C   0  0  0  0  0  0  0  0  0  0  0  0
   22.1131   11.3519   31.1177 O   0  0  0  0  0  0  0  0  0  0  0  0
   21.3839   10.2942   31.6329 C   0  0  0  0  0  0  0  0  0  0  0  0
   21.7293    9.0437   31.2234 N   0  0  0  0  0  0  0  0  0  0  0  0
   20.9896    8.0072   31.6469 C   0  0  0  0  0  0  0  0  0  0  0  0
   19.9094    8.1489   32.5070 C   0  0  0  0  0  0  0  0  0  0  0  0
   19.5594    9.4227   32.9202 C   0  0  0  0  0  0  0  0  0  0  0  0
   18.4400    9.5048   33.7395 N   0  0  0  0  0  0  0  0  0  0  0  0
   20.3035   10.5324   32.4890 C   0  0  0  0  0  0  0  0  0  0  0  0
   19.9761   11.9037   32.8617 C   0  0  0  0  0  0  0  0  0  0  0  0
   19.7239   12.9956   33.1512 N   0  0  0  0  0  0  0  0  0  0  0  0
   21.4466    6.8222   31.1057 N   0  0  0  0  0  0  0  0  0  0  0  0
   20.8624    5.6231   31.0276 C   0  0  0  0  0  0  0  0  0  0  0  0
   19.7368    5.3649   31.4500 O   0  0  0  0  0  0  0  0  0  0  0  0
   21.6464    4.5487   30.2818 C   0  0  0  0  0  0  0  0  0  0  0  0
   23.0171    4.2597   30.8878 C   0  0  0  0  0  0  0  0  0  0  0  0
   24.1155    5.0842   30.5962 C   0  0  0  0  0  0  0  0  0  0  0  0
   23.8945    6.1740   29.7723 O   0  0  0  0  0  0  0  0  0  0  0  0
   24.9287    7.1387   29.5901 C   0  0  0  0  0  0  0  0  0  0  0  0
   25.3625    4.7657   31.1517 C   0  0  0  0  0  0  0  0  0  0  0  0
   25.4998    3.6732   32.0086 C   0  0  0  0  0  0  0  0  0  0  0  0
   24.4115    2.8577   32.3080 C   0  0  0  0  0  0  0  0  0  0  0  0
   23.1685    3.1576   31.7364 C   0  0  0  0  0  0  0  0  0  0  0  0
   24.6403    1.8060   33.1700 O   0  0  0  0  0  0  0  0  0  0  0  0
   23.7219    0.7155   33.1863 C   0  0  0  0  0  0  0  0  0  0  0  0
   24.5909   13.1802   28.0376 H   0  0  0  0  0  0  0  0  0  0  0  0
   24.1213   12.9443   30.2860 H   0  0  0  0  0  0  0  0  0  0  0  0
   22.6451   13.1315   29.2799 H   0  0  0  0  0  0  0  0  0  0  0  0
   22.4378   10.6150   29.2040 H   0  0  0  0  0  0  0  0  0  0  0  0
   23.8347   10.5019   30.3276 H   0  0  0  0  0  0  0  0  0  0  0  0
   19.0324    7.7187   32.0012 H   0  0  0  0  0  0  0  0  0  0  0  0
   20.1347    7.5642   33.4111 H   0  0  0  0  0  0  0  0  0  0  0  0
   18.2254   10.4496   33.9870 H   0  0  0  0  0  0  0  0  0  0  0  0
   22.3629    6.8688   30.7079 H   0  0  0  0  0  0  0  0  0  0  0  0
   21.0586    3.6190   30.2926 H   0  0  0  0  0  0  0  0  0  0  0  0
   21.7887    4.8805   29.2427 H   0  0  0  0  0  0  0  0  0  0  0  0
   24.5786    7.9281   28.9088 H   0  0  0  0  0  0  0  0  0  0  0  0
   25.1910    7.5828   30.5617 H   0  0  0  0  0  0  0  0  0  0  0  0
   25.8147    6.6493   29.1595 H   0  0  0  0  0  0  0  0  0  0  0  0
   26.2246    5.3713   30.9143 H   0  0  0  0  0  0  0  0  0  0  0  0
   26.4634    3.4570   32.4457 H   0  0  0  0  0  0  0  0  0  0  0  0
   22.3164    2.5304   31.9533 H   0  0  0  0  0  0  0  0  0  0  0  0
   24.0510   -0.0307   33.9245 H   0  0  0  0  0  0  0  0  0  0  0  0
   22.7213    1.0830   33.4577 H   0  0  0  0  0  0  0  0  0  0  0  0
   23.6846    0.2528   32.1890 H   0  0  0  0  0  0  0  0  0  0  0  0
  1  2  1  0  0  0  0
  2  3  1  0  0  0  0
  3  4  1  0  0  0  0
  4  5  1  0  0  0  0
  5 11  2  0  0  0  0
  5  6  1  0  0  0  0
  6  7  2  0  0  0  0
  7  8  1  0  0  0  0
  7 14  1  0  0  0  0
  8  9  1  0  0  0  0
  9 10  2  0  0  0  0
  9 11  1  0  0  0  0
 11 12  1  0  0  0  0
 12 13  3  0  0  0  0
 14 15  1  0  0  0  0
 15 16  2  0  0  0  0
 15 17  1  0  0  0  0
 17 18  1  0  0  0  0
 18 25  2  0  0  0  0
 18 19  1  0  0  0  0
 19 20  1  0  0  0  0
 19 22  2  0  0  0  0
 20 21  1  0  0  0  0
 22 23  1  0  0  0  0
 23 24  2  0  0  0  0
 24 25  1  0  0  0  0
 24 26  1  0  0  0  0
 26 27  1  0  0  0  0
  1 28  1  0  0  0  0
  2 29  1  0  0  0  0
  2 30  1  0  0  0  0
  3 31  1  0  0  0  0
  3 32  1  0  0  0  0
  8 33  1  0  0  0  0
  8 34  1  0  0  0  0
 10 35  1  0  0  0  0
 14 36  1  0  0  0  0
 17 37  1  0  0  0  0
 17 38  1  0  0  0  0
 21 39  1  0  0  0  0
 21 40  1  0  0  0  0
 21 41  1  0  0  0  0
 22 42  1  0  0  0  0
 23 43  1  0  0  0  0
 25 44  1  0  0  0  0
 27 45  1  0  0  0  0
 27 46  1  0  0  0  0
 27 47  1  0  0  0  0
M  END
> <i_m_stars>
0

> <r_user_dG.exp>
-9.699398

$$$$
18658-1
  -OEChem-05162309453D
 Structure written by MMmdl.
 47 48  0     1  0  0  0  0  0999 V2000
   24.2852   12.3288   28.3276 O   0  0  0  0  0  0  0  0  0  0  0  0
   23.5037   12.4810   29.5025 C   0  0  0  0  0  0  0  0  0  0  0  0
   22.9866   11.1257   30.0090 C   0  0  0  0  0  0  0  0  0  0  0  0
   22.1131   11.3519   31.1177 O   0  0  0  0  0  0  0  0  0  0  0  0
   21.3839   10.2942   31.6329 C   0  0  0  0  0  0  0  0  0  0  0  0
   21.7293    9.0437   31.2234 N   0  0  0  0  0  0  0  0  0  0  0  0
   20.9896    8.0072   31.6469 C   0  0  0  0  0  0  0  0  0  0  0  0
   19.9094    8.1489   32.5070 C   0  0  0  0  0  0  0  0  0  0  0  0
   19.5594    9.4227   32.9202 C   0  0  0  0  0  0  0  0  0  0  0  0
   18.4400    9.5048   33.7395 N   0  0  0  0  0  0  0  0  0  0  0  0
   20.3035   10.5324   32.4890 C   0  0  3  0  0  0  0  0  0  0  0  0
   19.9761   11.9037   32.8617 C   0  0  0  0  0  0  0  0  0  0  0  0
   19.7239   12.9956   33.1512 N   0  0  0  0  0  0  0  0  0  0  0  0
   21.4466    6.8222   31.1057 N   0  0  0  0  0  0  0  0  0  0  0  0
   20.8624    5.6231   31.0276 C   0  0  0  0  0  0  0  0  0  0  0  0
   19.7368    5.3649   31.4500 O   0  0  0  0  0  0  0  0  0  0  0  0
   21.6464    4.5487   30.2818 C   0  0  0  0  0  0  0  0  0  0  0  0
   23.0171    4.2597   30.8878 C   0  0  0  0  0  0  0  0  0  0  0  0
   24.1155    5.0842   30.5962 C   0  0  0  0  0  0  0  0  0  0  0  0
   23.8945    6.1740   29.7723 O   0  0  0  0  0  0  0  0  0  0  0  0
   24.9287    7.1387   29.5901 C   0  0  0  0  0  0  0  0  0  0  0  0
   25.3625    4.7657   31.1517 C   0  0  0  0  0  0  0  0  0  0  0  0
   25.4998    3.6732   32.0086 C   0  0  0  0  0  0  0  0  0  0  0  0
   24.4115    2.8577   32.3080 C   0  0  0  0  0  0  0  0  0  0  0  0
   23.1685    3.1576   31.7364 C   0  0  0  0  0  0  0  0  0  0  0  0
   24.6403    1.8060   33.1700 O   0  0  0  0  0  0  0  0  0  0  0  0
   23.7219    0.7155   33.1863 C   0  0  0  0  0  0  0  0  0  0  0  0
   24.5909   13.1802   28.0376 H   0  0  0  0  0  0  0  0  0  0  0  0
   24.1213   12.9443   30.2860 H   0  0  0  0  0  0  0  0  0  0  0  0
   22.6451   13.1315   29.2799 H   0  0  0  0  0  0  0  0  0  0  0  0
   22.4378   10.6150   29.2040 H   0  0  0  0  0  0  0  0  0  0  0  0
   23.8347   10.5019   30.3276 H   0  0  0  0  0  0  0  0  0  0  0  0
   19.3553    7.2859   32.8457 H   0  0  0  0  0  0  0  0  0  0  0  0
   18.2724   10.4606   33.9809 H   0  0  0  0  0  0  0  0  0  0  0  0
   17.6451    9.1391   33.2553 H   0  0  0  0  0  0  0  0  0  0  0  0
   20.9640   10.4421   33.3640 H   0  0  0  0  0  0  0  0  0  0  0  0
   21.0586    3.6190   30.2926 H   0  0  0  0  0  0  0  0  0  0  0  0
   21.7887    4.8805   29.2427 H   0  0  0  0  0  0  0  0  0  0  0  0
   24.5786    7.9281   28.9088 H   0  0  0  0  0  0  0  0  0  0  0  0
   25.1910    7.5828   30.5617 H   0  0  0  0  0  0  0  0  0  0  0  0
   25.8147    6.6493   29.1595 H   0  0  0  0  0  0  0  0  0  0  0  0
   26.2246    5.3713   30.9143 H   0  0  0  0  0  0  0  0  0  0  0  0
   26.4634    3.4570   32.4457 H   0  0  0  0  0  0  0  0  0  0  0  0
   22.3164    2.5304   31.9533 H   0  0  0  0  0  0  0  0  0  0  0  0
   24.0510   -0.0307   33.9245 H   0  0  0  0  0  0  0  0  0  0  0  0
   22.7213    1.0830   33.4577 H   0  0  0  0  0  0  0  0  0  0  0  0
   23.6846    0.2528   32.1890 H   0  0  0  0  0  0  0  0  0  0  0  0
  1  2  1  0  0  0  0
  2  3  1  0  0  0  0
  3  4  1  0  0  0  0
  4  5  1  0  0  0  0
  5 11  1  0  0  0  0
  5  6  2  0  0  0  0
  6  7  1  0  0  0  0
  7  8  1  0  0  0  0
  7 14  2  0  0  0  0
  8  9  2  0  0  0  0
  9 10  1  0  0  0  0
  9 11  1  0  0  0  0
 11 12  1  0  0  0  0
 12 13  3  0  0  0  0
 14 15  1  0  0  0  0
 15 16  2  0  0  0  0
 15 17  1  0  0  0  0
 17 18  1  0  0  0  0
 18 25  2  0  0  0  0
 18 19  1  0  0  0  0
 19 20  1  0  0  0  0
 19 22  2  0  0  0  0
 20 21  1  0  0  0  0
 22 23  1  0  0  0  0
 23 24  2  0  0  0  0
 24 25  1  0  0  0  0
 24 26  1  0  0  0  0
 26 27  1  0  0  0  0
  1 28  1  0  0  0  0
  2 29  1  0  0  0  0
  2 30  1  0  0  0  0
  3 31  1  0  0  0  0
  3 32  1  0  0  0  0
  8 33  1  0  0  0  0
 10 34  1  0  0  0  0
 10 35  1  0  0  0  0
 11 36  1  0  0  0  0
 17 37  1  0  0  0  0
 17 38  1  0  0  0  0
 21 39  1  0  0  0  0
 21 40  1  0  0  0  0
 21 41  1  0  0  0  0
 22 42  1  0  0  0  0
 23 43  1  0  0  0  0
 25 44  1  0  0  0  0
 27 45  1  0  0  0  0
 27 46  1  0  0  0  0
 27 47  1  0  0  0  0
M  END
> <i_m_stars>
0

> <r_user_dG.exp>
-9.699398

$$$$
18658-1
  -OEChem-05162309453D
 Structure written by MMmdl.
 47 48  0     0  0  0  0  0  0999 V2000
   24.2852   12.3288   28.3276 O   0  0  0  0  0  0  0  0  0  0  0  0
   23.5037   12.4810   29.5025 C   0  0  0  0  0  0  0  0  0  0  0  0
   22.9866   11.1257   30.0090 C   0  0  0  0  0  0  0  0  0  0  0  0
   22.1131   11.3519   31.1177 O   0  0  0  0  0  0  0  0  0  0  0  0
   21.3839   10.2942   31.6329 C   0  0  0  0  0  0  0  0  0  0  0  0
   21.7293    9.0437   31.2234 N   0  0  0  0  0  0  0  0  0  0  0  0
   20.9896    8.0072   31.6469 C   0  0  0  0  0  0  0  0  0  0  0  0
   19.9094    8.1489   32.5070 C   0  0  0  0  0  0  0  0  0  0  0  0
   19.5594    9.4227   32.9202 C   0  0  0  0  0  0  0  0  0  0  0  0
   18.4400    9.5048   33.7395 N   0  0  0  0  0  0  0  0  0  0  0  0
   20.3035   10.5324   32.4890 C   0  0  0  0  0  0  0  0  0  0  0  0
   19.9761   11.9037   32.8617 C   0  0  0  0  0  0  0  0  0  0  0  0
   19.7239   12.9956   33.1512 N   0  0  0  0  0  0  0  0  0  0  0  0
   21.4466    6.8222   31.1057 N   0  0  0  0  0  0  0  0  0  0  0  0
   20.8624    5.6231   31.0276 C   0  0  0  0  0  0  0  0  0  0  0  0
   19.7368    5.3649   31.4500 O   0  0  0  0  0  0  0  0  0  0  0  0
   21.6464    4.5487   30.2818 C   0  0  0  0  0  0  0  0  0  0  0  0
   23.0171    4.2597   30.8878 C   0  0  0  0  0  0  0  0  0  0  0  0
   24.1155    5.0842   30.5962 C   0  0  0  0  0  0  0  0  0  0  0  0
   23.8945    6.1740   29.7723 O   0  0  0  0  0  0  0  0  0  0  0  0
   24.9287    7.1387   29.5901 C   0  0  0  0  0  0  0  0  0  0  0  0
   25.3625    4.7657   31.1517 C   0  0  0  0  0  0  0  0  0  0  0  0
   25.4998    3.6732   32.0086 C   0  0  0  0  0  0  0  0  0  0  0  0
   24.4115    2.8577   32.3080 C   0  0  0  0  0  0  0  0  0  0  0  0
   23.1685    3.1576   31.7364 C   0  0  0  0  0  0  0  0  0  0  0  0
   24.6403    1.8060   33.1700 O   0  0  0  0  0  0  0  0  0  0  0  0
   23.7219    0.7155   33.1863 C   0  0  0  0  0  0  0  0  0  0  0  0
   24.5909   13.1802   28.0376 H   0  0  0  0  0  0  0  0  0  0  0  0
   24.1213   12.9443   30.2860 H   0  0  0  0  0  0  0  0  0  0  0  0
   22.6451   13.1315   29.2799 H   0  0  0  0  0  0  0  0  0  0  0  0
   22.4378   10.6150   29.2040 H   0  0  0  0  0  0  0  0  0  0  0  0
   23.8347   10.5019   30.3276 H   0  0  0  0  0  0  0  0  0  0  0  0
   19.0324    7.7187   32.0012 H   0  0  0  0  0  0  0  0  0  0  0  0
   20.1347    7.5642   33.4111 H   0  0  0  0  0  0  0  0  0  0  0  0
   18.2724   10.4606   33.9809 H   0  0  0  0  0  0  0  0  0  0  0  0
   17.6451    9.1391   33.2553 H   0  0  0  0  0  0  0  0  0  0  0  0
   21.0586    3.6190   30.2926 H   0  0  0  0  0  0  0  0  0  0  0  0
   21.7887    4.8805   29.2427 H   0  0  0  0  0  0  0  0  0  0  0  0
   24.5786    7.9281   28.9088 H   0  0  0  0  0  0  0  0  0  0  0  0
   25.1910    7.5828   30.5617 H   0  0  0  0  0  0  0  0  0  0  0  0
   25.8147    6.6493   29.1595 H   0  0  0  0  0  0  0  0  0  0  0  0
   26.2246    5.3713   30.9143 H   0  0  0  0  0  0  0  0  0  0  0  0
   26.4634    3.4570   32.4457 H   0  0  0  0  0  0  0  0  0  0  0  0
   22.3164    2.5304   31.9533 H   0  0  0  0  0  0  0  0  0  0  0  0
   24.0510   -0.0307   33.9245 H   0  0  0  0  0  0  0  0  0  0  0  0
   22.7213    1.0830   33.4577 H   0  0  0  0  0  0  0  0  0  0  0  0
   23.6846    0.2528   32.1890 H   0  0  0  0  0  0  0  0  0  0  0  0
  1  2  1  0  0  0  0
  2  3  1  0  0  0  0
  3  4  1  0  0  0  0
  4  5  1  0  0  0  0
  5 11  1  0  0  0  0
  5  6  2  0  0  0  0
  6  7  1  0  0  0  0
  7  8  1  0  0  0  0
  7 14  2  0  0  0  0
  8  9  1  0  0  0  0
  9 10  1  0  0  0  0
  9 11  2  0  0  0  0
 11 12  1  0  0  0  0
 12 13  3  0  0  0  0
 14 15  1  0  0  0  0
 15 16  2  0  0  0  0
 15 17  1  0  0  0  0
 17 18  1  0  0  0  0
 18 25  2  0  0  0  0
 18 19  1  0  0  0  0
 19 20  1  0  0  0  0
 19 22  2  0  0  0  0
 20 21  1  0  0  0  0
 22 23  1  0  0  0  0
 23 24  2  0  0  0  0
 24 25  1  0  0  0  0
 24 26  1  0  0  0  0
 26 27  1  0  0  0  0
  1 28  1  0  0  0  0
  2 29  1  0  0  0  0
  2 30  1  0  0  0  0
  3 31  1  0  0  0  0
  3 32  1  0  0  0  0
  8 33  1  0  0  0  0
  8 34  1  0  0  0  0
 10 35  1  0  0  0  0
 10 36  1  0  0  0  0
 17 37  1  0  0  0  0
 17 38  1  0  0  0  0
 21 39  1  0  0  0  0
 21 40  1  0  0  0  0
 21 41  1  0  0  0  0
 22 42  1  0  0  0  0
 23 43  1  0  0  0  0
 25 44  1  0  0  0  0
 27 45  1  0  0  0  0
 27 46  1  0  0  0  0
 27 47  1  0  0  0  0
M  END
> <i_m_stars>
0

> <r_user_dG.exp>
-9.699398

$$$$
18658-1
  -OEChem-05162309453D
 Structure written by MMmdl.
 47 48  0     0  0  0  0  0  0999 V2000
   24.2852   12.3288   28.3276 O   0  0  0  0  0  0  0  0  0  0  0  0
   23.5037   12.4810   29.5025 C   0  0  0  0  0  0  0  0  0  0  0  0
   22.9866   11.1257   30.0090 C   0  0  0  0  0  0  0  0  0  0  0  0
   22.1131   11.3519   31.1177 O   0  0  0  0  0  0  0  0  0  0  0  0
   21.3839   10.2942   31.6329 C   0  0  0  0  0  0  0  0  0  0  0  0
   21.7293    9.0437   31.2234 N   0  0  0  0  0  0  0  0  0  0  0  0
   20.9896    8.0072   31.6469 C   0  0  0  0  0  0  0  0  0  0  0  0
   19.9094    8.1489   32.5070 C   0  0  0  0  0  0  0  0  0  0  0  0
   19.5594    9.4227   32.9202 C   0  0  0  0  0  0  0  0  0  0  0  0
   18.4400    9.5048   33.7395 N   0  0  0  0  0  0  0  0  0  0  0  0
   20.3035   10.5324   32.4890 C   0  0  0  0  0  0  0  0  0  0  0  0
   19.9761   11.9037   32.8617 C   0  0  0  0  0  0  0  0  0  0  0  0
   19.7239   12.9956   33.1512 N   0  0  0  0  0  0  0  0  0  0  0  0
   21.4466    6.8222   31.1057 N   0  0  0  0  0  0  0  0  0  0  0  0
   20.8624    5.6231   31.0276 C   0  0  0  0  0  0  0  0  0  0  0  0
   19.7368    5.3649   31.4500 O   0  0  0  0  0  0  0  0  0  0  0  0
   21.6464    4.5487   30.2818 C   0  0  0  0  0  0  0  0  0  0  0  0
   23.0171    4.2597   30.8878 C   0  0  0  0  0  0  0  0  0  0  0  0
   24.1155    5.0842   30.5962 C   0  0  0  0  0  0  0  0  0  0  0  0
   23.8945    6.1740   29.7723 O   0  0  0  0  0  0  0  0  0  0  0  0
   24.9287    7.1387   29.5901 C   0  0  0  0  0  0  0  0  0  0  0  0
   25.3625    4.7657   31.1517 C   0  0  0  0  0  0  0  0  0  0  0  0
   25.4998    3.6732   32.0086 C   0  0  0  0  0  0  0  0  0  0  0  0
   24.4115    2.8577   32.3080 C   0  0  0  0  0  0  0  0  0  0  0  0
   23.1685    3.1576   31.7364 C   0  0  0  0  0  0  0  0  0  0  0  0
   24.6403    1.8060   33.1700 O   0  0  0  0  0  0  0  0  0  0  0  0
   23.7219    0.7155   33.1863 C   0  0  0  0  0  0  0  0  0  0  0  0
   24.5909   13.1802   28.0376 H   0  0  0  0  0  0  0  0  0  0  0  0
   24.1213   12.9443   30.2860 H   0  0  0  0  0  0  0  0  0  0  0  0
   22.6451   13.1315   29.2799 H   0  0  0  0  0  0  0  0  0  0  0  0
   22.4378   10.6150   29.2040 H   0  0  0  0  0  0  0  0  0  0  0  0
   23.8347   10.5019   30.3276 H   0  0  0  0  0  0  0  0  0  0  0  0
   22.5150    8.9004   30.6216 H   0  0  0  0  0  0  0  0  0  0  0  0
   19.0324    7.7187   32.0012 H   0  0  0  0  0  0  0  0  0  0  0  0
   20.1347    7.5642   33.4111 H   0  0  0  0  0  0  0  0  0  0  0  0
   18.2254   10.4496   33.9870 H   0  0  0  0  0  0  0  0  0  0  0  0
   21.0586    3.6190   30.2926 H   0  0  0  0  0  0  0  0  0  0  0  0
   21.7887    4.8805   29.2427 H   0  0  0  0  0  0  0  0  0  0  0  0
   24.5786    7.9281   28.9088 H   0  0  0  0  0  0  0  0  0  0  0  0
   25.1910    7.5828   30.5617 H   0  0  0  0  0  0  0  0  0  0  0  0
   25.8147    6.6493   29.1595 H   0  0  0  0  0  0  0  0  0  0  0  0
   26.2246    5.3713   30.9143 H   0  0  0  0  0  0  0  0  0  0  0  0
   26.4634    3.4570   32.4457 H   0  0  0  0  0  0  0  0  0  0  0  0
   22.3164    2.5304   31.9533 H   0  0  0  0  0  0  0  0  0  0  0  0
   24.0510   -0.0307   33.9245 H   0  0  0  0  0  0  0  0  0  0  0  0
   22.7213    1.0830   33.4577 H   0  0  0  0  0  0  0  0  0  0  0  0
   23.6846    0.2528   32.1890 H   0  0  0  0  0  0  0  0  0  0  0  0
  1  2  1  0  0  0  0
  2  3  1  0  0  0  0
  3  4  1  0  0  0  0
  4  5  1  0  0  0  0
  5 11  2  0  0  0  0
  5  6  1  0  0  0  0
  6  7  1  0  0  0  0
  7  8  1  0  0  0  0
  7 14  2  0  0  0  0
  8  9  1  0  0  0  0
  9 10  2  0  0  0  0
  9 11  1  0  0  0  0
 11 12  1  0  0  0  0
 12 13  3  0  0  0  0
 14 15  1  0  0  0  0
 15 16  2  0  0  0  0
 15 17  1  0  0  0  0
 17 18  1  0  0  0  0
 18 25  2  0  0  0  0
 18 19  1  0  0  0  0
 19 20  1  0  0  0  0
 19 22  2  0  0  0  0
 20 21  1  0  0  0  0
 22 23  1  0  0  0  0
 23 24  2  0  0  0  0
 24 25  1  0  0  0  0
 24 26  1  0  0  0  0
 26 27  1  0  0  0  0
  1 28  1  0  0  0  0
  2 29  1  0  0  0  0
  2 30  1  0  0  0  0
  3 31  1  0  0  0  0
  3 32  1  0  0  0  0
  6 33  1  0  0  0  0
  8 34  1  0  0  0  0
  8 35  1  0  0  0  0
 10 36  1  0  0  0  0
 17 37  1  0  0  0  0
 17 38  1  0  0  0  0
 21 39  1  0  0  0  0
 21 40  1  0  0  0  0
 21 41  1  0  0  0  0
 22 42  1  0  0  0  0
 23 43  1  0  0  0  0
 25 44  1  0  0  0  0
 27 45  1  0  0  0  0
 27 46  1  0  0  0  0
 27 47  1  0  0  0  0
M  END
> <i_m_stars>
0

> <r_user_dG.exp>
-9.699398

$$$$
18658-1
  -OEChem-05162309453D
 Structure written by MMmdl.
 47 48  0     1  0  0  0  0  0999 V2000
   24.2852   12.3288   28.3276 O   0  0  0  0  0  0  0  0  0  0  0  0
   23.5037   12.4810   29.5025 C   0  0  0  0  0  0  0  0  0  0  0  0
   22.9866   11.1257   30.0090 C   0  0  0  0  0  0  0  0  0  0  0  0
   22.1131   11.3519   31.1177 O   0  0  0  0  0  0  0  0  0  0  0  0
   21.3839   10.2942   31.6329 C   0  0  0  0  0  0  0  0  0  0  0  0
   21.7293    9.0437   31.2234 N   0  0  0  0  0  0  0  0  0  0  0  0
   20.9896    8.0072   31.6469 C   0  0  0  0  0  0  0  0  0  0  0  0
   19.9094    8.1489   32.5070 C   0  0  0  0  0  0  0  0  0  0  0  0
   19.5594    9.4227   32.9202 C   0  0  0  0  0  0  0  0  0  0  0  0
   18.4400    9.5048   33.7395 N   0  0  0  0  0  0  0  0  0  0  0  0
   20.3035   10.5324   32.4890 C   0  0  3  0  0  0  0  0  0  0  0  0
   19.9761   11.9037   32.8617 C   0  0  0  0  0  0  0  0  0  0  0  0
   19.7239   12.9956   33.1512 N   0  0  0  0  0  0  0  0  0  0  0  0
   21.4466    6.8222   31.1057 N   0  0  0  0  0  0  0  0  0  0  0  0
   20.8624    5.6231   31.0276 C   0  0  0  0  0  0  0  0  0  0  0  0
   19.7368    5.3649   31.4500 O   0  0  0  0  0  0  0  0  0  0  0  0
   21.6464    4.5487   30.2818 C   0  0  0  0  0  0  0  0  0  0  0  0
   23.0171    4.2597   30.8878 C   0  0  0  0  0  0  0  0  0  0  0  0
   24.1155    5.0842   30.5962 C   0  0  0  0  0  0  0  0  0  0  0  0
   23.8945    6.1740   29.7723 O   0  0  0  0  0  0  0  0  0  0  0  0
   24.9287    7.1387   29.5901 C   0  0  0  0  0  0  0  0  0  0  0  0
   25.3625    4.7657   31.1517 C   0  0  0  0  0  0  0  0  0  0  0  0
   25.4998    3.6732   32.0086 C   0  0  0  0  0  0  0  0  0  0  0  0
   24.4115    2.8577   32.3080 C   0  0  0  0  0  0  0  0  0  0  0  0
   23.1685    3.1576   31.7364 C   0  0  0  0  0  0  0  0  0  0  0  0
   24.6403    1.8060   33.1700 O   0  0  0  0  0  0  0  0  0  0  0  0
   23.7219    0.7155   33.1863 C   0  0  0  0  0  0  0  0  0  0  0  0
   24.5909   13.1802   28.0376 H   0  0  0  0  0  0  0  0  0  0  0  0
   24.1213   12.9443   30.2860 H   0  0  0  0  0  0  0  0  0  0  0  0
   22.6451   13.1315   29.2799 H   0  0  0  0  0  0  0  0  0  0  0  0
   22.4378   10.6150   29.2040 H   0  0  0  0  0  0  0  0  0  0  0  0
   23.8347   10.5019   30.3276 H   0  0  0  0  0  0  0  0  0  0  0  0
   19.3553    7.2859   32.8457 H   0  0  0  0  0  0  0  0  0  0  0  0
   18.2254   10.4496   33.9870 H   0  0  0  0  0  0  0  0  0  0  0  0
   20.9640   10.4421   33.3640 H   0  0  0  0  0  0  0  0  0  0  0  0
   19.5371    4.4513   31.2827 H   0  0  0  0  0  0  0  0  0  0  0  0
   21.0586    3.6190   30.2926 H   0  0  0  0  0  0  0  0  0  0  0  0
   21.7887    4.8805   29.2427 H   0  0  0  0  0  0  0  0  0  0  0  0
   24.5786    7.9281   28.9088 H   0  0  0  0  0  0  0  0  0  0  0  0
   25.1910    7.5828   30.5617 H   0  0  0  0  0  0  0  0  0  0  0  0
   25.8147    6.6493   29.1595 H   0  0  0  0  0  0  0  0  0  0  0  0
   26.2246    5.3713   30.9143 H   0  0  0  0  0  0  0  0  0  0  0  0
   26.4634    3.4570   32.4457 H   0  0  0  0  0  0  0  0  0  0  0  0
   22.3164    2.5304   31.9533 H   0  0  0  0  0  0  0  0  0  0  0  0
   24.0510   -0.0307   33.9245 H   0  0  0  0  0  0  0  0  0  0  0  0
   22.7213    1.0830   33.4577 H   0  0  0  0  0  0  0  0  0  0  0  0
   23.6846    0.2528   32.1890 H   0  0  0  0  0  0  0  0  0  0  0  0
  1  2  1  0  0  0  0
  2  3  1  0  0  0  0
  3  4  1  0  0  0  0
  4  5  1  0  0  0  0
  5 11  1  0  0  0  0
  5  6  2  0  0  0  0
  6  7  1  0  0  0  0
  7  8  2  0  0  0  0
  7 14  1  0  0  0  0
  8  9  1  0  0  0  0
  9 10  2  0  0  0  0
  9 11  1  0  0  0  0
 11 12  1  0  0  0  0
 12 13  3  0  0  0  0
 14 15  2  0  0  0  0
 15 16  1  0  0  0  0
 15 17  1  0  0  0  0
 17 18  1  0  0  0  0
 18 25  2  0  0  0  0
 18 19  1  0  0  0  0
 19 20  1  0  0  0  0
 19 22  2  0  0  0  0
 20 21  1  0  0  0  0
 22 23  1  0  0  0  0
 23 24  2  0  0  0  0
 24 25  1  0  0  0  0
 24 26  1  0  0  0  0
 26 27  1  0  0  0  0
  1 28  1  0  0  0  0
  2 29  1  0  0  0  0
  2 30  1  0  0  0  0
  3 31  1  0  0  0  0
  3 32  1  0  0  0  0
  8 33  1  0  0  0  0
 10 34  1  0  0  0  0
 11 35  1  0  0  0  0
 16 36  1  0  0  0  0
 17 37  1  0  0  0  0
 17 38  1  0  0  0  0
 21 39  1  0  0  0  0
 21 40  1  0  0  0  0
 21 41  1  0  0  0  0
 22 42  1  0  0  0  0
 23 43  1  0  0  0  0
 25 44  1  0  0  0  0
 27 45  1  0  0  0  0
 27 46  1  0  0  0  0
 27 47  1  0  0  0  0
M  END
> <i_m_stars>
0

> <r_user_dG.exp>
-9.699398

$$$$
18658-1
  -OEChem-05162309453D
 Structure written by MMmdl.
 47 48  0     0  0  0  0  0  0999 V2000
   24.2852   12.3288   28.3276 O   0  0  0  0  0  0  0  0  0  0  0  0
   23.5037   12.4810   29.5025 C   0  0  0  0  0  0  0  0  0  0  0  0
   22.9866   11.1257   30.0090 C   0  0  0  0  0  0  0  0  0  0  0  0
   22.1131   11.3519   31.1177 O   0  0  0  0  0  0  0  0  0  0  0  0
   21.3839   10.2942   31.6329 C   0  0  0  0  0  0  0  0  0  0  0  0
   21.7293    9.0437   31.2234 N   0  0  0  0  0  0  0  0  0  0  0  0
   20.9896    8.0072   31.6469 C   0  0  0  0  0  0  0  0  0  0  0  0
   19.9094    8.1489   32.5070 C   0  0  0  0  0  0  0  0  0  0  0  0
   19.5594    9.4227   32.9202 C   0  0  0  0  0  0  0  0  0  0  0  0
   18.4400    9.5048   33.7395 N   0  0  0  0  0  0  0  0  0  0  0  0
   20.3035   10.5324   32.4890 C   0  0  0  0  0  0  0  0  0  0  0  0
   19.9761   11.9037   32.8617 C   0  0  0  0  0  0  0  0  0  0  0  0
   19.7239   12.9956   33.1512 N   0  0  0  0  0  0  0  0  0  0  0  0
   21.4466    6.8222   31.1057 N   0  0  0  0  0  0  0  0  0  0  0  0
   20.8624    5.6231   31.0276 C   0  0  0  0  0  0  0  0  0  0  0  0
   19.7368    5.3649   31.4500 O   0  0  0  0  0  0  0  0  0  0  0  0
   21.6464    4.5487   30.2818 C   0  0  0  0  0  0  0  0  0  0  0  0
   23.0171    4.2597   30.8878 C   0  0  0  0  0  0  0  0  0  0  0  0
   24.1155    5.0842   30.5962 C   0  0  0  0  0  0  0  0  0  0  0  0
   23.8945    6.1740   29.7723 O   0  0  0  0  0  0  0  0  0  0  0  0
   24.9287    7.1387   29.5901 C   0  0  0  0  0  0  0  0  0  0  0  0
   25.3625    4.7657   31.1517 C   0  0  0  0  0  0  0  0  0  0  0  0
   25.4998    3.6732   32.0086 C   0  0  0  0  0  0  0  0  0  0  0  0
   24.4115    2.8577   32.3080 C   0  0  0  0  0  0  0  0  0  0  0  0
   23.1685    3.1576   31.7364 C   0  0  0  0  0  0  0  0  0  0  0  0
   24.6403    1.8060   33.1700 O   0  0  0  0  0  0  0  0  0  0  0  0
   23.7219    0.7155   33.1863 C   0  0  0  0  0  0  0  0  0  0  0  0
   24.5909   13.1802   28.0376 H   0  0  0  0  0  0  0  0  0  0  0  0
   24.1213   12.9443   30.2860 H   0  0  0  0  0  0  0  0  0  0  0  0
   22.6451   13.1315   29.2799 H   0  0  0  0  0  0  0  0  0  0  0  0
   22.4378   10.6150   29.2040 H   0  0  0  0  0  0  0  0  0  0  0  0
   23.8347   10.5019   30.3276 H   0  0  0  0  0  0  0  0  0  0  0  0
   19.0324    7.7187   32.0012 H   0  0  0  0  0  0  0  0  0  0  0  0
   20.1347    7.5642   33.4111 H   0  0  0  0  0  0  0  0  0  0  0  0
   18.2254   10.4496   33.9870 H   0  0  0  0  0  0  0  0  0  0  0  0
   19.5371    4.4513   31.2827 H   0  0  0  0  0  0  0  0  0  0  0  0
   21.0586    3.6190   30.2926 H   0  0  0  0  0  0  0  0  0  0  0  0
   21.7887    4.8805   29.2427 H   0  0  0  0  0  0  0  0  0  0  0  0
   24.5786    7.9281   28.9088 H   0  0  0  0  0  0  0  0  0  0  0  0
   25.1910    7.5828   30.5617 H   0  0  0  0  0  0  0  0  0  0  0  0
   25.8147    6.6493   29.1595 H   0  0  0  0  0  0  0  0  0  0  0  0
   26.2246    5.3713   30.9143 H   0  0  0  0  0  0  0  0  0  0  0  0
   26.4634    3.4570   32.4457 H   0  0  0  0  0  0  0  0  0  0  0  0
   22.3164    2.5304   31.9533 H   0  0  0  0  0  0  0  0  0  0  0  0
   24.0510   -0.0307   33.9245 H   0  0  0  0  0  0  0  0  0  0  0  0
   22.7213    1.0830   33.4577 H   0  0  0  0  0  0  0  0  0  0  0  0
   23.6846    0.2528   32.1890 H   0  0  0  0  0  0  0  0  0  0  0  0
  1  2  1  0  0  0  0
  2  3  1  0  0  0  0
  3  4  1  0  0  0  0
  4  5  1  0  0  0  0
  5 11  2  0  0  0  0
  5  6  1  0  0  0  0
  6  7  2  0  0  0  0
  7  8  1  0  0  0  0
  7 14  1  0  0  0  0
  8  9  1  0  0  0  0
  9 10  2  0  0  0  0
  9 11  1  0  0  0  0
 11 12  1  0  0  0  0
 12 13  3  0  0  0  0
 14 15  2  0  0  0  0
 15 16  1  0  0  0  0
 15 17  1  0  0  0  0
 17 18  1  0  0  0  0
 18 25  2  0  0  0  0
 18 19  1  0  0  0  0
 19 20  1  0  0  0  0
 19 22  2  0  0  0  0
 20 21  1  0  0  0  0
 22 23  1  0  0  0  0
 23 24  2  0  0  0  0
 24 25  1  0  0  0  0
 24 26  1  0  0  0  0
 26 27  1  0  0  0  0
  1 28  1  0  0  0  0
  2 29  1  0  0  0  0
  2 30  1  0  0  0  0
  3 31  1  0  0  0  0
  3 32  1  0  0  0  0
  8 33  1  0  0  0  0
  8 34  1  0  0  0  0
 10 35  1  0  0  0  0
 16 36  1  0  0  0  0
 17 37  1  0  0  0  0
 17 38  1  0  0  0  0
 21 39  1  0  0  0  0
 21 40  1  0  0  0  0
 21 41  1  0  0  0  0
 22 42  1  0  0  0  0
 23 43  1  0  0  0  0
 25 44  1  0  0  0  0
 27 45  1  0  0  0  0
 27 46  1  0  0  0  0
 27 47  1  0  0  0  0
M  END
> <i_m_stars>
0

> <r_user_dG.exp>
-9.699398

$$$$
