18625-1
  -OEChem-05192314073D
 Structure written by MMmdl.
 38 39  0     0  0  0  0  0  0999 V2000
   23.9836   12.4667   30.2867 C   0  0  0  0  0  0  0  0  0  0  0  0
   23.2737   11.1272   30.4972 C   0  0  0  0  0  0  0  0  0  0  0  0
   22.1371   11.3623   31.3251 O   0  0  0  0  0  0  0  0  0  0  0  0
   21.3544   10.2954   31.7327 C   0  0  0  0  0  0  0  0  0  0  0  0
   21.7200    9.0555   31.3102 N   0  0  0  0  0  0  0  0  0  0  0  0
   20.9619    8.0098   31.6663 C   0  0  0  0  0  0  0  0  0  0  0  0
   19.8426    8.1238   32.4782 C   0  0  0  0  0  0  0  0  0  0  0  0
   19.4695    9.3867   32.9059 C   0  0  0  0  0  0  0  0  0  0  0  0
   18.3212    9.4436   33.6872 N   0  0  0  0  0  0  0  0  0  0  0  0
   20.2252   10.5101   32.5303 C   0  0  0  0  0  0  0  0  0  0  0  0
   19.8753   11.8722   32.9144 C   0  0  0  0  0  0  0  0  0  0  0  0
   19.6057   12.9576   33.2124 N   0  0  0  0  0  0  0  0  0  0  0  0
   21.4575    6.8521   31.1054 N   0  0  0  0  0  0  0  0  0  0  0  0
   20.9156    5.6355   31.0009 C   0  0  0  0  0  0  0  0  0  0  0  0
   19.8099    5.3226   31.4377 O   0  0  0  0  0  0  0  0  0  0  0  0
   21.7255    4.6155   30.2083 C   0  0  0  0  0  0  0  0  0  0  0  0
   23.0587    4.2602   30.8639 C   0  0  0  0  0  0  0  0  0  0  0  0
   23.1402    3.3559   31.9374 C   0  0  0  0  0  0  0  0  0  0  0  0
   21.7341    2.5734   32.5724 Cl  0  0  0  0  0  0  0  0  0  0  0  0
   24.3761    3.0744   32.5186 C   0  0  0  0  0  0  0  0  0  0  0  0
   25.5378    3.6730   32.0318 C   0  0  0  0  0  0  0  0  0  0  0  0
   25.4624    4.5663   30.9649 C   0  0  0  0  0  0  0  0  0  0  0  0
   24.2283    4.8614   30.3873 C   0  0  0  0  0  0  0  0  0  0  0  0
   24.8678   12.3175   29.6496 H   0  0  0  0  0  0  0  0  0  0  0  0
   23.2958   13.1735   29.7995 H   0  0  0  0  0  0  0  0  0  0  0  0
   24.2973   12.8722   31.2599 H   0  0  0  0  0  0  0  0  0  0  0  0
   22.9526   10.7174   29.5282 H   0  0  0  0  0  0  0  0  0  0  0  0
   23.9541   10.4162   30.9886 H   0  0  0  0  0  0  0  0  0  0  0  0
   19.2774    7.2506   32.7689 H   0  0  0  0  0  0  0  0  0  0  0  0
   18.1382   10.3928   33.9430 H   0  0  0  0  0  0  0  0  0  0  0  0
   17.5465    9.0833   33.1676 H   0  0  0  0  0  0  0  0  0  0  0  0
   22.3730    6.9369   30.7122 H   0  0  0  0  0  0  0  0  0  0  0  0
   21.1290    3.6965   30.1101 H   0  0  0  0  0  0  0  0  0  0  0  0
   21.9272    5.0301   29.2096 H   0  0  0  0  0  0  0  0  0  0  0  0
   24.4340    2.3886   33.3509 H   0  0  0  0  0  0  0  0  0  0  0  0
   26.4933    3.4449   32.4805 H   0  0  0  0  0  0  0  0  0  0  0  0
   26.3607    5.0304   30.5852 H   0  0  0  0  0  0  0  0  0  0  0  0
   24.1749    5.5598   29.5653 H   0  0  0  0  0  0  0  0  0  0  0  0
  1  2  1  0  0  0  0
  2  3  1  0  0  0  0
  3  4  1  0  0  0  0
  4 10  2  0  0  0  0
  4  5  1  0  0  0  0
  5  6  2  0  0  0  0
  6  7  1  0  0  0  0
  6 13  1  0  0  0  0
  7  8  2  0  0  0  0
  8  9  1  0  0  0  0
  8 10  1  0  0  0  0
 10 11  1  0  0  0  0
 11 12  3  0  0  0  0
 13 14  1  0  0  0  0
 14 15  2  0  0  0  0
 14 16  1  0  0  0  0
 16 17  1  0  0  0  0
 17 23  2  0  0  0  0
 17 18  1  0  0  0  0
 18 19  1  0  0  0  0
 18 20  2  0  0  0  0
 20 21  1  0  0  0  0
 21 22  2  0  0  0  0
 22 23  1  0  0  0  0
  1 24  1  0  0  0  0
  1 25  1  0  0  0  0
  1 26  1  0  0  0  0
  2 27  1  0  0  0  0
  2 28  1  0  0  0  0
  7 29  1  0  0  0  0
  9 30  1  0  0  0  0
  9 31  1  0  0  0  0
 13 32  1  0  0  0  0
 16 33  1  0  0  0  0
 16 34  1  0  0  0  0
 20 35  1  0  0  0  0
 21 36  1  0  0  0  0
 22 37  1  0  0  0  0
 23 38  1  0  0  0  0
M  END
> <i_m_stars>
0

> <r_user_dG.exp>
-8.105004

$$$$
18625-1
  -OEChem-05192314073D
 Structure written by MMmdl.
 38 39  0     0  0  0  0  0  0999 V2000
   23.9836   12.4667   30.2867 C   0  0  0  0  0  0  0  0  0  0  0  0
   23.2737   11.1272   30.4972 C   0  0  0  0  0  0  0  0  0  0  0  0
   22.1371   11.3623   31.3251 O   0  0  0  0  0  0  0  0  0  0  0  0
   21.3544   10.2954   31.7327 C   0  0  0  0  0  0  0  0  0  0  0  0
   21.7200    9.0555   31.3102 N   0  0  0  0  0  0  0  0  0  0  0  0
   20.9619    8.0098   31.6663 C   0  0  0  0  0  0  0  0  0  0  0  0
   19.8426    8.1238   32.4782 C   0  0  0  0  0  0  0  0  0  0  0  0
   19.4695    9.3867   32.9059 C   0  0  0  0  0  0  0  0  0  0  0  0
   18.3212    9.4436   33.6872 N   0  0  0  0  0  0  0  0  0  0  0  0
   20.2252   10.5101   32.5303 C   0  0  0  0  0  0  0  0  0  0  0  0
   19.8753   11.8722   32.9144 C   0  0  0  0  0  0  0  0  0  0  0  0
   19.6057   12.9576   33.2124 N   0  0  0  0  0  0  0  0  0  0  0  0
   21.4575    6.8521   31.1054 N   0  0  0  0  0  0  0  0  0  0  0  0
   20.9156    5.6355   31.0009 C   0  0  0  0  0  0  0  0  0  0  0  0
   19.8099    5.3226   31.4377 O   0  0  0  0  0  0  0  0  0  0  0  0
   21.7255    4.6155   30.2083 C   0  0  0  0  0  0  0  0  0  0  0  0
   23.0587    4.2602   30.8639 C   0  0  0  0  0  0  0  0  0  0  0  0
   23.1402    3.3559   31.9374 C   0  0  0  0  0  0  0  0  0  0  0  0
   21.7341    2.5734   32.5724 Cl  0  0  0  0  0  0  0  0  0  0  0  0
   24.3761    3.0744   32.5186 C   0  0  0  0  0  0  0  0  0  0  0  0
   25.5378    3.6730   32.0318 C   0  0  0  0  0  0  0  0  0  0  0  0
   25.4624    4.5663   30.9649 C   0  0  0  0  0  0  0  0  0  0  0  0
   24.2283    4.8614   30.3873 C   0  0  0  0  0  0  0  0  0  0  0  0
   24.8678   12.3175   29.6496 H   0  0  0  0  0  0  0  0  0  0  0  0
   23.2958   13.1735   29.7995 H   0  0  0  0  0  0  0  0  0  0  0  0
   24.2973   12.8722   31.2599 H   0  0  0  0  0  0  0  0  0  0  0  0
   22.9526   10.7174   29.5282 H   0  0  0  0  0  0  0  0  0  0  0  0
   23.9541   10.4162   30.9886 H   0  0  0  0  0  0  0  0  0  0  0  0
   19.2774    7.2506   32.7689 H   0  0  0  0  0  0  0  0  0  0  0  0
   18.1382   10.3928   33.9430 H   0  0  0  0  0  0  0  0  0  0  0  0
   17.5465    9.0833   33.1676 H   0  0  0  0  0  0  0  0  0  0  0  0
   19.6401    4.4080   31.2451 H   0  0  0  0  0  0  0  0  0  0  0  0
   21.1290    3.6965   30.1101 H   0  0  0  0  0  0  0  0  0  0  0  0
   21.9272    5.0301   29.2096 H   0  0  0  0  0  0  0  0  0  0  0  0
   24.4340    2.3886   33.3509 H   0  0  0  0  0  0  0  0  0  0  0  0
   26.4933    3.4449   32.4805 H   0  0  0  0  0  0  0  0  0  0  0  0
   26.3607    5.0304   30.5852 H   0  0  0  0  0  0  0  0  0  0  0  0
   24.1749    5.5598   29.5653 H   0  0  0  0  0  0  0  0  0  0  0  0
  1  2  1  0  0  0  0
  2  3  1  0  0  0  0
  3  4  1  0  0  0  0
  4 10  2  0  0  0  0
  4  5  1  0  0  0  0
  5  6  2  0  0  0  0
  6  7  1  0  0  0  0
  6 13  1  0  0  0  0
  7  8  2  0  0  0  0
  8  9  1  0  0  0  0
  8 10  1  0  0  0  0
 10 11  1  0  0  0  0
 11 12  3  0  0  0  0
 13 14  2  0  0  0  0
 14 15  1  0  0  0  0
 14 16  1  0  0  0  0
 16 17  1  0  0  0  0
 17 23  2  0  0  0  0
 17 18  1  0  0  0  0
 18 19  1  0  0  0  0
 18 20  2  0  0  0  0
 20 21  1  0  0  0  0
 21 22  2  0  0  0  0
 22 23  1  0  0  0  0
  1 24  1  0  0  0  0
  1 25  1  0  0  0  0
  1 26  1  0  0  0  0
  2 27  1  0  0  0  0
  2 28  1  0  0  0  0
  7 29  1  0  0  0  0
  9 30  1  0  0  0  0
  9 31  1  0  0  0  0
 15 32  1  0  0  0  0
 16 33  1  0  0  0  0
 16 34  1  0  0  0  0
 20 35  1  0  0  0  0
 21 36  1  0  0  0  0
 22 37  1  0  0  0  0
 23 38  1  0  0  0  0
M  END
> <i_m_stars>
0

> <r_user_dG.exp>
-8.105004

$$$$
18625-1
  -OEChem-05192314073D
 Structure written by MMmdl.
 38 39  0     0  0  0  0  0  0999 V2000
   23.9836   12.4667   30.2867 C   0  0  0  0  0  0  0  0  0  0  0  0
   23.2737   11.1272   30.4972 C   0  0  0  0  0  0  0  0  0  0  0  0
   22.1371   11.3623   31.3251 O   0  0  0  0  0  0  0  0  0  0  0  0
   21.3544   10.2954   31.7327 C   0  0  0  0  0  0  0  0  0  0  0  0
   21.7200    9.0555   31.3102 N   0  0  0  0  0  0  0  0  0  0  0  0
   20.9619    8.0098   31.6663 C   0  0  0  0  0  0  0  0  0  0  0  0
   19.8426    8.1238   32.4782 C   0  0  0  0  0  0  0  0  0  0  0  0
   19.4695    9.3867   32.9059 C   0  0  0  0  0  0  0  0  0  0  0  0
   18.3212    9.4436   33.6872 N   0  0  0  0  0  0  0  0  0  0  0  0
   20.2252   10.5101   32.5303 C   0  0  0  0  0  0  0  0  0  0  0  0
   19.8753   11.8722   32.9144 C   0  0  0  0  0  0  0  0  0  0  0  0
   19.6057   12.9576   33.2124 N   0  0  0  0  0  0  0  0  0  0  0  0
   21.4575    6.8521   31.1054 N   0  0  0  0  0  0  0  0  0  0  0  0
   20.9156    5.6355   31.0009 C   0  0  0  0  0  0  0  0  0  0  0  0
   19.8099    5.3226   31.4377 O   0  0  0  0  0  0  0  0  0  0  0  0
   21.7255    4.6155   30.2083 C   0  0  0  0  0  0  0  0  0  0  0  0
   23.0587    4.2602   30.8639 C   0  0  0  0  0  0  0  0  0  0  0  0
   23.1402    3.3559   31.9374 C   0  0  0  0  0  0  0  0  0  0  0  0
   21.7341    2.5734   32.5724 Cl  0  0  0  0  0  0  0  0  0  0  0  0
   24.3761    3.0744   32.5186 C   0  0  0  0  0  0  0  0  0  0  0  0
   25.5378    3.6730   32.0318 C   0  0  0  0  0  0  0  0  0  0  0  0
   25.4624    4.5663   30.9649 C   0  0  0  0  0  0  0  0  0  0  0  0
   24.2283    4.8614   30.3873 C   0  0  0  0  0  0  0  0  0  0  0  0
   24.8678   12.3175   29.6496 H   0  0  0  0  0  0  0  0  0  0  0  0
   23.2958   13.1735   29.7995 H   0  0  0  0  0  0  0  0  0  0  0  0
   24.2973   12.8722   31.2599 H   0  0  0  0  0  0  0  0  0  0  0  0
   22.9526   10.7174   29.5282 H   0  0  0  0  0  0  0  0  0  0  0  0
   23.9541   10.4162   30.9886 H   0  0  0  0  0  0  0  0  0  0  0  0
   22.5360    8.9272   30.7466 H   0  0  0  0  0  0  0  0  0  0  0  0
   19.2774    7.2506   32.7689 H   0  0  0  0  0  0  0  0  0  0  0  0
   18.0944   10.3808   33.9521 H   0  0  0  0  0  0  0  0  0  0  0  0
   22.3730    6.9369   30.7122 H   0  0  0  0  0  0  0  0  0  0  0  0
   21.1290    3.6965   30.1101 H   0  0  0  0  0  0  0  0  0  0  0  0
   21.9272    5.0301   29.2096 H   0  0  0  0  0  0  0  0  0  0  0  0
   24.4340    2.3886   33.3509 H   0  0  0  0  0  0  0  0  0  0  0  0
   26.4933    3.4449   32.4805 H   0  0  0  0  0  0  0  0  0  0  0  0
   26.3607    5.0304   30.5852 H   0  0  0  0  0  0  0  0  0  0  0  0
   24.1749    5.5598   29.5653 H   0  0  0  0  0  0  0  0  0  0  0  0
  1  2  1  0  0  0  0
  2  3  1  0  0  0  0
  3  4  1  0  0  0  0
  4 10  2  0  0  0  0
  4  5  1  0  0  0  0
  5  6  1  0  0  0  0
  6  7  2  0  0  0  0
  6 13  1  0  0  0  0
  7  8  1  0  0  0  0
  8  9  2  0  0  0  0
  8 10  1  0  0  0  0
 10 11  1  0  0  0  0
 11 12  3  0  0  0  0
 13 14  1  0  0  0  0
 14 15  2  0  0  0  0
 14 16  1  0  0  0  0
 16 17  1  0  0  0  0
 17 23  2  0  0  0  0
 17 18  1  0  0  0  0
 18 19  1  0  0  0  0
 18 20  2  0  0  0  0
 20 21  1  0  0  0  0
 21 22  2  0  0  0  0
 22 23  1  0  0  0  0
  1 24  1  0  0  0  0
  1 25  1  0  0  0  0
  1 26  1  0  0  0  0
  2 27  1  0  0  0  0
  2 28  1  0  0  0  0
  5 29  1  0  0  0  0
  7 30  1  0  0  0  0
  9 31  1  0  0  0  0
 13 32  1  0  0  0  0
 16 33  1  0  0  0  0
 16 34  1  0  0  0  0
 20 35  1  0  0  0  0
 21 36  1  0  0  0  0
 22 37  1  0  0  0  0
 23 38  1  0  0  0  0
M  END
> <i_m_stars>
0

> <r_user_dG.exp>
-8.105004

$$$$
18625-1
  -OEChem-05192314073D
 Structure written by MMmdl.
 38 39  0     0  0  0  0  0  0999 V2000
   23.9836   12.4667   30.2867 C   0  0  0  0  0  0  0  0  0  0  0  0
   23.2737   11.1272   30.4972 C   0  0  0  0  0  0  0  0  0  0  0  0
   22.1371   11.3623   31.3251 O   0  0  0  0  0  0  0  0  0  0  0  0
   21.3544   10.2954   31.7327 C   0  0  0  0  0  0  0  0  0  0  0  0
   21.7200    9.0555   31.3102 N   0  0  0  0  0  0  0  0  0  0  0  0
   20.9619    8.0098   31.6663 C   0  0  0  0  0  0  0  0  0  0  0  0
   19.8426    8.1238   32.4782 C   0  0  0  0  0  0  0  0  0  0  0  0
   19.4695    9.3867   32.9059 C   0  0  0  0  0  0  0  0  0  0  0  0
   18.3212    9.4436   33.6872 N   0  0  0  0  0  0  0  0  0  0  0  0
   20.2252   10.5101   32.5303 C   0  0  0  0  0  0  0  0  0  0  0  0
   19.8753   11.8722   32.9144 C   0  0  0  0  0  0  0  0  0  0  0  0
   19.6057   12.9576   33.2124 N   0  0  0  0  0  0  0  0  0  0  0  0
   21.4575    6.8521   31.1054 N   0  0  0  0  0  0  0  0  0  0  0  0
   20.9156    5.6355   31.0009 C   0  0  0  0  0  0  0  0  0  0  0  0
   19.8099    5.3226   31.4377 O   0  0  0  0  0  0  0  0  0  0  0  0
   21.7255    4.6155   30.2083 C   0  0  0  0  0  0  0  0  0  0  0  0
   23.0587    4.2602   30.8639 C   0  0  0  0  0  0  0  0  0  0  0  0
   23.1402    3.3559   31.9374 C   0  0  0  0  0  0  0  0  0  0  0  0
   21.7341    2.5734   32.5724 Cl  0  0  0  0  0  0  0  0  0  0  0  0
   24.3761    3.0744   32.5186 C   0  0  0  0  0  0  0  0  0  0  0  0
   25.5378    3.6730   32.0318 C   0  0  0  0  0  0  0  0  0  0  0  0
   25.4624    4.5663   30.9649 C   0  0  0  0  0  0  0  0  0  0  0  0
   24.2283    4.8614   30.3873 C   0  0  0  0  0  0  0  0  0  0  0  0
   24.8678   12.3175   29.6496 H   0  0  0  0  0  0  0  0  0  0  0  0
   23.2958   13.1735   29.7995 H   0  0  0  0  0  0  0  0  0  0  0  0
   24.2973   12.8722   31.2599 H   0  0  0  0  0  0  0  0  0  0  0  0
   22.9526   10.7174   29.5282 H   0  0  0  0  0  0  0  0  0  0  0  0
   23.9541   10.4162   30.9886 H   0  0  0  0  0  0  0  0  0  0  0  0
   22.5360    8.9272   30.7466 H   0  0  0  0  0  0  0  0  0  0  0  0
   19.2774    7.2506   32.7689 H   0  0  0  0  0  0  0  0  0  0  0  0
   18.1382   10.3928   33.9430 H   0  0  0  0  0  0  0  0  0  0  0  0
   17.5465    9.0833   33.1676 H   0  0  0  0  0  0  0  0  0  0  0  0
   21.1290    3.6965   30.1101 H   0  0  0  0  0  0  0  0  0  0  0  0
   21.9272    5.0301   29.2096 H   0  0  0  0  0  0  0  0  0  0  0  0
   24.4340    2.3886   33.3509 H   0  0  0  0  0  0  0  0  0  0  0  0
   26.4933    3.4449   32.4805 H   0  0  0  0  0  0  0  0  0  0  0  0
   26.3607    5.0304   30.5852 H   0  0  0  0  0  0  0  0  0  0  0  0
   24.1749    5.5598   29.5653 H   0  0  0  0  0  0  0  0  0  0  0  0
  1  2  1  0  0  0  0
  2  3  1  0  0  0  0
  3  4  1  0  0  0  0
  4 10  2  0  0  0  0
  4  5  1  0  0  0  0
  5  6  1  0  0  0  0
  6  7  1  0  0  0  0
  6 13  2  0  0  0  0
  7  8  2  0  0  0  0
  8  9  1  0  0  0  0
  8 10  1  0  0  0  0
 10 11  1  0  0  0  0
 11 12  3  0  0  0  0
 13 14  1  0  0  0  0
 14 15  2  0  0  0  0
 14 16  1  0  0  0  0
 16 17  1  0  0  0  0
 17 23  2  0  0  0  0
 17 18  1  0  0  0  0
 18 19  1  0  0  0  0
 18 20  2  0  0  0  0
 20 21  1  0  0  0  0
 21 22  2  0  0  0  0
 22 23  1  0  0  0  0
  1 24  1  0  0  0  0
  1 25  1  0  0  0  0
  1 26  1  0  0  0  0
  2 27  1  0  0  0  0
  2 28  1  0  0  0  0
  5 29  1  0  0  0  0
  7 30  1  0  0  0  0
  9 31  1  0  0  0  0
  9 32  1  0  0  0  0
 16 33  1  0  0  0  0
 16 34  1  0  0  0  0
 20 35  1  0  0  0  0
 21 36  1  0  0  0  0
 22 37  1  0  0  0  0
 23 38  1  0  0  0  0
M  END
> <i_m_stars>
0

> <r_user_dG.exp>
-8.105004

$$$$
18625-1
  -OEChem-05192314073D
 Structure written by MMmdl.
 38 39  0     0  0  0  0  0  0999 V2000
   23.9836   12.4667   30.2867 C   0  0  0  0  0  0  0  0  0  0  0  0
   23.2737   11.1272   30.4972 C   0  0  0  0  0  0  0  0  0  0  0  0
   22.1371   11.3623   31.3251 O   0  0  0  0  0  0  0  0  0  0  0  0
   21.3544   10.2954   31.7327 C   0  0  0  0  0  0  0  0  0  0  0  0
   21.7200    9.0555   31.3102 N   0  0  0  0  0  0  0  0  0  0  0  0
   20.9619    8.0098   31.6663 C   0  0  0  0  0  0  0  0  0  0  0  0
   19.8426    8.1238   32.4782 C   0  0  0  0  0  0  0  0  0  0  0  0
   19.4695    9.3867   32.9059 C   0  0  0  0  0  0  0  0  0  0  0  0
   18.3212    9.4436   33.6872 N   0  0  0  0  0  0  0  0  0  0  0  0
   20.2252   10.5101   32.5303 C   0  0  0  0  0  0  0  0  0  0  0  0
   19.8753   11.8722   32.9144 C   0  0  0  0  0  0  0  0  0  0  0  0
   19.6057   12.9576   33.2124 N   0  0  0  0  0  0  0  0  0  0  0  0
   21.4575    6.8521   31.1054 N   0  0  0  0  0  0  0  0  0  0  0  0
   20.9156    5.6355   31.0009 C   0  0  0  0  0  0  0  0  0  0  0  0
   19.8099    5.3226   31.4377 O   0  0  0  0  0  0  0  0  0  0  0  0
   21.7255    4.6155   30.2083 C   0  0  0  0  0  0  0  0  0  0  0  0
   23.0587    4.2602   30.8639 C   0  0  0  0  0  0  0  0  0  0  0  0
   23.1402    3.3559   31.9374 C   0  0  0  0  0  0  0  0  0  0  0  0
   21.7341    2.5734   32.5724 Cl  0  0  0  0  0  0  0  0  0  0  0  0
   24.3761    3.0744   32.5186 C   0  0  0  0  0  0  0  0  0  0  0  0
   25.5378    3.6730   32.0318 C   0  0  0  0  0  0  0  0  0  0  0  0
   25.4624    4.5663   30.9649 C   0  0  0  0  0  0  0  0  0  0  0  0
   24.2283    4.8614   30.3873 C   0  0  0  0  0  0  0  0  0  0  0  0
   24.8678   12.3175   29.6496 H   0  0  0  0  0  0  0  0  0  0  0  0
   23.2958   13.1735   29.7995 H   0  0  0  0  0  0  0  0  0  0  0  0
   24.2973   12.8722   31.2599 H   0  0  0  0  0  0  0  0  0  0  0  0
   22.9526   10.7174   29.5282 H   0  0  0  0  0  0  0  0  0  0  0  0
   23.9541   10.4162   30.9886 H   0  0  0  0  0  0  0  0  0  0  0  0
   22.5360    8.9272   30.7466 H   0  0  0  0  0  0  0  0  0  0  0  0
   19.2774    7.2506   32.7689 H   0  0  0  0  0  0  0  0  0  0  0  0
   18.0944   10.3808   33.9521 H   0  0  0  0  0  0  0  0  0  0  0  0
   19.6401    4.4080   31.2451 H   0  0  0  0  0  0  0  0  0  0  0  0
   21.1290    3.6965   30.1101 H   0  0  0  0  0  0  0  0  0  0  0  0
   21.9272    5.0301   29.2096 H   0  0  0  0  0  0  0  0  0  0  0  0
   24.4340    2.3886   33.3509 H   0  0  0  0  0  0  0  0  0  0  0  0
   26.4933    3.4449   32.4805 H   0  0  0  0  0  0  0  0  0  0  0  0
   26.3607    5.0304   30.5852 H   0  0  0  0  0  0  0  0  0  0  0  0
   24.1749    5.5598   29.5653 H   0  0  0  0  0  0  0  0  0  0  0  0
  1  2  1  0  0  0  0
  2  3  1  0  0  0  0
  3  4  1  0  0  0  0
  4 10  2  0  0  0  0
  4  5  1  0  0  0  0
  5  6  1  0  0  0  0
  6  7  2  0  0  0  0
  6 13  1  0  0  0  0
  7  8  1  0  0  0  0
  8  9  2  0  0  0  0
  8 10  1  0  0  0  0
 10 11  1  0  0  0  0
 11 12  3  0  0  0  0
 13 14  2  0  0  0  0
 14 15  1  0  0  0  0
 14 16  1  0  0  0  0
 16 17  1  0  0  0  0
 17 23  2  0  0  0  0
 17 18  1  0  0  0  0
 18 19  1  0  0  0  0
 18 20  2  0  0  0  0
 20 21  1  0  0  0  0
 21 22  2  0  0  0  0
 22 23  1  0  0  0  0
  1 24  1  0  0  0  0
  1 25  1  0  0  0  0
  1 26  1  0  0  0  0
  2 27  1  0  0  0  0
  2 28  1  0  0  0  0
  5 29  1  0  0  0  0
  7 30  1  0  0  0  0
  9 31  1  0  0  0  0
 15 32  1  0  0  0  0
 16 33  1  0  0  0  0
 16 34  1  0  0  0  0
 20 35  1  0  0  0  0
 21 36  1  0  0  0  0
 22 37  1  0  0  0  0
 23 38  1  0  0  0  0
M  END
> <i_m_stars>
0

> <r_user_dG.exp>
-8.105004

$$$$
18625-1
  -OEChem-05192314073D
 Structure written by MMmdl.
 38 39  0     1  0  0  0  0  0999 V2000
   23.9836   12.4667   30.2867 C   0  0  0  0  0  0  0  0  0  0  0  0
   23.2737   11.1272   30.4972 C   0  0  0  0  0  0  0  0  0  0  0  0
   22.1371   11.3623   31.3251 O   0  0  0  0  0  0  0  0  0  0  0  0
   21.3544   10.2954   31.7327 C   0  0  0  0  0  0  0  0  0  0  0  0
   21.7200    9.0555   31.3102 N   0  0  0  0  0  0  0  0  0  0  0  0
   20.9619    8.0098   31.6663 C   0  0  0  0  0  0  0  0  0  0  0  0
   19.8426    8.1238   32.4782 C   0  0  0  0  0  0  0  0  0  0  0  0
   19.4695    9.3867   32.9059 C   0  0  0  0  0  0  0  0  0  0  0  0
   18.3212    9.4436   33.6872 N   0  0  0  0  0  0  0  0  0  0  0  0
   20.2252   10.5101   32.5303 C   0  0  3  0  0  0  0  0  0  0  0  0
   19.8753   11.8722   32.9144 C   0  0  0  0  0  0  0  0  0  0  0  0
   19.6057   12.9576   33.2124 N   0  0  0  0  0  0  0  0  0  0  0  0
   21.4575    6.8521   31.1054 N   0  0  0  0  0  0  0  0  0  0  0  0
   20.9156    5.6355   31.0009 C   0  0  0  0  0  0  0  0  0  0  0  0
   19.8099    5.3226   31.4377 O   0  0  0  0  0  0  0  0  0  0  0  0
   21.7255    4.6155   30.2083 C   0  0  0  0  0  0  0  0  0  0  0  0
   23.0587    4.2602   30.8639 C   0  0  0  0  0  0  0  0  0  0  0  0
   23.1402    3.3559   31.9374 C   0  0  0  0  0  0  0  0  0  0  0  0
   21.7341    2.5734   32.5724 Cl  0  0  0  0  0  0  0  0  0  0  0  0
   24.3761    3.0744   32.5186 C   0  0  0  0  0  0  0  0  0  0  0  0
   25.5378    3.6730   32.0318 C   0  0  0  0  0  0  0  0  0  0  0  0
   25.4624    4.5663   30.9649 C   0  0  0  0  0  0  0  0  0  0  0  0
   24.2283    4.8614   30.3873 C   0  0  0  0  0  0  0  0  0  0  0  0
   24.8678   12.3175   29.6496 H   0  0  0  0  0  0  0  0  0  0  0  0
   23.2958   13.1735   29.7995 H   0  0  0  0  0  0  0  0  0  0  0  0
   24.2973   12.8722   31.2599 H   0  0  0  0  0  0  0  0  0  0  0  0
   22.9526   10.7174   29.5282 H   0  0  0  0  0  0  0  0  0  0  0  0
   23.9541   10.4162   30.9886 H   0  0  0  0  0  0  0  0  0  0  0  0
   18.9920    7.7036   31.9215 H   0  0  0  0  0  0  0  0  0  0  0  0
   20.0285    7.5170   33.3767 H   0  0  0  0  0  0  0  0  0  0  0  0
   18.0944   10.3808   33.9521 H   0  0  0  0  0  0  0  0  0  0  0  0
   20.8394   10.4067   33.4370 H   0  0  0  0  0  0  0  0  0  0  0  0
   21.1290    3.6965   30.1101 H   0  0  0  0  0  0  0  0  0  0  0  0
   21.9272    5.0301   29.2096 H   0  0  0  0  0  0  0  0  0  0  0  0
   24.4340    2.3886   33.3509 H   0  0  0  0  0  0  0  0  0  0  0  0
   26.4933    3.4449   32.4805 H   0  0  0  0  0  0  0  0  0  0  0  0
   26.3607    5.0304   30.5852 H   0  0  0  0  0  0  0  0  0  0  0  0
   24.1749    5.5598   29.5653 H   0  0  0  0  0  0  0  0  0  0  0  0
  1  2  1  0  0  0  0
  2  3  1  0  0  0  0
  3  4  1  0  0  0  0
  4 10  1  0  0  0  0
  4  5  2  0  0  0  0
  5  6  1  0  0  0  0
  6  7  1  0  0  0  0
  6 13  2  0  0  0  0
  7  8  1  0  0  0  0
  8  9  2  0  0  0  0
  8 10  1  0  0  0  0
 10 11  1  0  0  0  0
 11 12  3  0  0  0  0
 13 14  1  0  0  0  0
 14 15  2  0  0  0  0
 14 16  1  0  0  0  0
 16 17  1  0  0  0  0
 17 23  2  0  0  0  0
 17 18  1  0  0  0  0
 18 19  1  0  0  0  0
 18 20  2  0  0  0  0
 20 21  1  0  0  0  0
 21 22  2  0  0  0  0
 22 23  1  0  0  0  0
  1 24  1  0  0  0  0
  1 25  1  0  0  0  0
  1 26  1  0  0  0  0
  2 27  1  0  0  0  0
  2 28  1  0  0  0  0
  7 29  1  0  0  0  0
  7 30  1  0  0  0  0
  9 31  1  0  0  0  0
 10 32  1  0  0  0  0
 16 33  1  0  0  0  0
 16 34  1  0  0  0  0
 20 35  1  0  0  0  0
 21 36  1  0  0  0  0
 22 37  1  0  0  0  0
 23 38  1  0  0  0  0
M  END
> <i_m_stars>
0

> <r_user_dG.exp>
-8.105004

$$$$
18625-1
  -OEChem-05192314073D
 Structure written by MMmdl.
 38 39  0     1  0  0  0  0  0999 V2000
   23.9836   12.4667   30.2867 C   0  0  0  0  0  0  0  0  0  0  0  0
   23.2737   11.1272   30.4972 C   0  0  0  0  0  0  0  0  0  0  0  0
   22.1371   11.3623   31.3251 O   0  0  0  0  0  0  0  0  0  0  0  0
   21.3544   10.2954   31.7327 C   0  0  0  0  0  0  0  0  0  0  0  0
   21.7200    9.0555   31.3102 N   0  0  0  0  0  0  0  0  0  0  0  0
   20.9619    8.0098   31.6663 C   0  0  0  0  0  0  0  0  0  0  0  0
   19.8426    8.1238   32.4782 C   0  0  0  0  0  0  0  0  0  0  0  0
   19.4695    9.3867   32.9059 C   0  0  0  0  0  0  0  0  0  0  0  0
   18.3212    9.4436   33.6872 N   0  0  0  0  0  0  0  0  0  0  0  0
   20.2252   10.5101   32.5303 C   0  0  3  0  0  0  0  0  0  0  0  0
   19.8753   11.8722   32.9144 C   0  0  0  0  0  0  0  0  0  0  0  0
   19.6057   12.9576   33.2124 N   0  0  0  0  0  0  0  0  0  0  0  0
   21.4575    6.8521   31.1054 N   0  0  0  0  0  0  0  0  0  0  0  0
   20.9156    5.6355   31.0009 C   0  0  0  0  0  0  0  0  0  0  0  0
   19.8099    5.3226   31.4377 O   0  0  0  0  0  0  0  0  0  0  0  0
   21.7255    4.6155   30.2083 C   0  0  0  0  0  0  0  0  0  0  0  0
   23.0587    4.2602   30.8639 C   0  0  0  0  0  0  0  0  0  0  0  0
   23.1402    3.3559   31.9374 C   0  0  0  0  0  0  0  0  0  0  0  0
   21.7341    2.5734   32.5724 Cl  0  0  0  0  0  0  0  0  0  0  0  0
   24.3761    3.0744   32.5186 C   0  0  0  0  0  0  0  0  0  0  0  0
   25.5378    3.6730   32.0318 C   0  0  0  0  0  0  0  0  0  0  0  0
   25.4624    4.5663   30.9649 C   0  0  0  0  0  0  0  0  0  0  0  0
   24.2283    4.8614   30.3873 C   0  0  0  0  0  0  0  0  0  0  0  0
   24.8678   12.3175   29.6496 H   0  0  0  0  0  0  0  0  0  0  0  0
   23.2958   13.1735   29.7995 H   0  0  0  0  0  0  0  0  0  0  0  0
   24.2973   12.8722   31.2599 H   0  0  0  0  0  0  0  0  0  0  0  0
   22.9526   10.7174   29.5282 H   0  0  0  0  0  0  0  0  0  0  0  0
   23.9541   10.4162   30.9886 H   0  0  0  0  0  0  0  0  0  0  0  0
   19.2774    7.2506   32.7689 H   0  0  0  0  0  0  0  0  0  0  0  0
   18.0944   10.3808   33.9521 H   0  0  0  0  0  0  0  0  0  0  0  0
   20.8394   10.4067   33.4370 H   0  0  0  0  0  0  0  0  0  0  0  0
   22.3730    6.9369   30.7122 H   0  0  0  0  0  0  0  0  0  0  0  0
   21.1290    3.6965   30.1101 H   0  0  0  0  0  0  0  0  0  0  0  0
   21.9272    5.0301   29.2096 H   0  0  0  0  0  0  0  0  0  0  0  0
   24.4340    2.3886   33.3509 H   0  0  0  0  0  0  0  0  0  0  0  0
   26.4933    3.4449   32.4805 H   0  0  0  0  0  0  0  0  0  0  0  0
   26.3607    5.0304   30.5852 H   0  0  0  0  0  0  0  0  0  0  0  0
   24.1749    5.5598   29.5653 H   0  0  0  0  0  0  0  0  0  0  0  0
  1  2  1  0  0  0  0
  2  3  1  0  0  0  0
  3  4  1  0  0  0  0
  4 10  1  0  0  0  0
  4  5  2  0  0  0  0
  5  6  1  0  0  0  0
  6  7  2  0  0  0  0
  6 13  1  0  0  0  0
  7  8  1  0  0  0  0
  8  9  2  0  0  0  0
  8 10  1  0  0  0  0
 10 11  1  0  0  0  0
 11 12  3  0  0  0  0
 13 14  1  0  0  0  0
 14 15  2  0  0  0  0
 14 16  1  0  0  0  0
 16 17  1  0  0  0  0
 17 23  2  0  0  0  0
 17 18  1  0  0  0  0
 18 19  1  0  0  0  0
 18 20  2  0  0  0  0
 20 21  1  0  0  0  0
 21 22  2  0  0  0  0
 22 23  1  0  0  0  0
  1 24  1  0  0  0  0
  1 25  1  0  0  0  0
  1 26  1  0  0  0  0
  2 27  1  0  0  0  0
  2 28  1  0  0  0  0
  7 29  1  0  0  0  0
  9 30  1  0  0  0  0
 10 31  1  0  0  0  0
 13 32  1  0  0  0  0
 16 33  1  0  0  0  0
 16 34  1  0  0  0  0
 20 35  1  0  0  0  0
 21 36  1  0  0  0  0
 22 37  1  0  0  0  0
 23 38  1  0  0  0  0
M  END
> <i_m_stars>
0

> <r_user_dG.exp>
-8.105004

$$$$
18625-1
  -OEChem-05192314073D
 Structure written by MMmdl.
 38 39  0     0  0  0  0  0  0999 V2000
   23.9836   12.4667   30.2867 C   0  0  0  0  0  0  0  0  0  0  0  0
   23.2737   11.1272   30.4972 C   0  0  0  0  0  0  0  0  0  0  0  0
   22.1371   11.3623   31.3251 O   0  0  0  0  0  0  0  0  0  0  0  0
   21.3544   10.2954   31.7327 C   0  0  0  0  0  0  0  0  0  0  0  0
   21.7200    9.0555   31.3102 N   0  0  0  0  0  0  0  0  0  0  0  0
   20.9619    8.0098   31.6663 C   0  0  0  0  0  0  0  0  0  0  0  0
   19.8426    8.1238   32.4782 C   0  0  0  0  0  0  0  0  0  0  0  0
   19.4695    9.3867   32.9059 C   0  0  0  0  0  0  0  0  0  0  0  0
   18.3212    9.4436   33.6872 N   0  0  0  0  0  0  0  0  0  0  0  0
   20.2252   10.5101   32.5303 C   0  0  0  0  0  0  0  0  0  0  0  0
   19.8753   11.8722   32.9144 C   0  0  0  0  0  0  0  0  0  0  0  0
   19.6057   12.9576   33.2124 N   0  0  0  0  0  0  0  0  0  0  0  0
   21.4575    6.8521   31.1054 N   0  0  0  0  0  0  0  0  0  0  0  0
   20.9156    5.6355   31.0009 C   0  0  0  0  0  0  0  0  0  0  0  0
   19.8099    5.3226   31.4377 O   0  0  0  0  0  0  0  0  0  0  0  0
   21.7255    4.6155   30.2083 C   0  0  0  0  0  0  0  0  0  0  0  0
   23.0587    4.2602   30.8639 C   0  0  0  0  0  0  0  0  0  0  0  0
   23.1402    3.3559   31.9374 C   0  0  0  0  0  0  0  0  0  0  0  0
   21.7341    2.5734   32.5724 Cl  0  0  0  0  0  0  0  0  0  0  0  0
   24.3761    3.0744   32.5186 C   0  0  0  0  0  0  0  0  0  0  0  0
   25.5378    3.6730   32.0318 C   0  0  0  0  0  0  0  0  0  0  0  0
   25.4624    4.5663   30.9649 C   0  0  0  0  0  0  0  0  0  0  0  0
   24.2283    4.8614   30.3873 C   0  0  0  0  0  0  0  0  0  0  0  0
   24.8678   12.3175   29.6496 H   0  0  0  0  0  0  0  0  0  0  0  0
   23.2958   13.1735   29.7995 H   0  0  0  0  0  0  0  0  0  0  0  0
   24.2973   12.8722   31.2599 H   0  0  0  0  0  0  0  0  0  0  0  0
   22.9526   10.7174   29.5282 H   0  0  0  0  0  0  0  0  0  0  0  0
   23.9541   10.4162   30.9886 H   0  0  0  0  0  0  0  0  0  0  0  0
   18.9920    7.7036   31.9215 H   0  0  0  0  0  0  0  0  0  0  0  0
   20.0285    7.5170   33.3767 H   0  0  0  0  0  0  0  0  0  0  0  0
   18.0944   10.3808   33.9521 H   0  0  0  0  0  0  0  0  0  0  0  0
   22.3730    6.9369   30.7122 H   0  0  0  0  0  0  0  0  0  0  0  0
   21.1290    3.6965   30.1101 H   0  0  0  0  0  0  0  0  0  0  0  0
   21.9272    5.0301   29.2096 H   0  0  0  0  0  0  0  0  0  0  0  0
   24.4340    2.3886   33.3509 H   0  0  0  0  0  0  0  0  0  0  0  0
   26.4933    3.4449   32.4805 H   0  0  0  0  0  0  0  0  0  0  0  0
   26.3607    5.0304   30.5852 H   0  0  0  0  0  0  0  0  0  0  0  0
   24.1749    5.5598   29.5653 H   0  0  0  0  0  0  0  0  0  0  0  0
  1  2  1  0  0  0  0
  2  3  1  0  0  0  0
  3  4  1  0  0  0  0
  4 10  2  0  0  0  0
  4  5  1  0  0  0  0
  5  6  2  0  0  0  0
  6  7  1  0  0  0  0
  6 13  1  0  0  0  0
  7  8  1  0  0  0  0
  8  9  2  0  0  0  0
  8 10  1  0  0  0  0
 10 11  1  0  0  0  0
 11 12  3  0  0  0  0
 13 14  1  0  0  0  0
 14 15  2  0  0  0  0
 14 16  1  0  0  0  0
 16 17  1  0  0  0  0
 17 23  2  0  0  0  0
 17 18  1  0  0  0  0
 18 19  1  0  0  0  0
 18 20  2  0  0  0  0
 20 21  1  0  0  0  0
 21 22  2  0  0  0  0
 22 23  1  0  0  0  0
  1 24  1  0  0  0  0
  1 25  1  0  0  0  0
  1 26  1  0  0  0  0
  2 27  1  0  0  0  0
  2 28  1  0  0  0  0
  7 29  1  0  0  0  0
  7 30  1  0  0  0  0
  9 31  1  0  0  0  0
 13 32  1  0  0  0  0
 16 33  1  0  0  0  0
 16 34  1  0  0  0  0
 20 35  1  0  0  0  0
 21 36  1  0  0  0  0
 22 37  1  0  0  0  0
 23 38  1  0  0  0  0
M  END
> <i_m_stars>
0

> <r_user_dG.exp>
-8.105004

$$$$
18625-1
  -OEChem-05192314073D
 Structure written by MMmdl.
 38 39  0     1  0  0  0  0  0999 V2000
   23.9836   12.4667   30.2867 C   0  0  0  0  0  0  0  0  0  0  0  0
   23.2737   11.1272   30.4972 C   0  0  0  0  0  0  0  0  0  0  0  0
   22.1371   11.3623   31.3251 O   0  0  0  0  0  0  0  0  0  0  0  0
   21.3544   10.2954   31.7327 C   0  0  0  0  0  0  0  0  0  0  0  0
   21.7200    9.0555   31.3102 N   0  0  0  0  0  0  0  0  0  0  0  0
   20.9619    8.0098   31.6663 C   0  0  0  0  0  0  0  0  0  0  0  0
   19.8426    8.1238   32.4782 C   0  0  0  0  0  0  0  0  0  0  0  0
   19.4695    9.3867   32.9059 C   0  0  0  0  0  0  0  0  0  0  0  0
   18.3212    9.4436   33.6872 N   0  0  0  0  0  0  0  0  0  0  0  0
   20.2252   10.5101   32.5303 C   0  0  3  0  0  0  0  0  0  0  0  0
   19.8753   11.8722   32.9144 C   0  0  0  0  0  0  0  0  0  0  0  0
   19.6057   12.9576   33.2124 N   0  0  0  0  0  0  0  0  0  0  0  0
   21.4575    6.8521   31.1054 N   0  0  0  0  0  0  0  0  0  0  0  0
   20.9156    5.6355   31.0009 C   0  0  0  0  0  0  0  0  0  0  0  0
   19.8099    5.3226   31.4377 O   0  0  0  0  0  0  0  0  0  0  0  0
   21.7255    4.6155   30.2083 C   0  0  0  0  0  0  0  0  0  0  0  0
   23.0587    4.2602   30.8639 C   0  0  0  0  0  0  0  0  0  0  0  0
   23.1402    3.3559   31.9374 C   0  0  0  0  0  0  0  0  0  0  0  0
   21.7341    2.5734   32.5724 Cl  0  0  0  0  0  0  0  0  0  0  0  0
   24.3761    3.0744   32.5186 C   0  0  0  0  0  0  0  0  0  0  0  0
   25.5378    3.6730   32.0318 C   0  0  0  0  0  0  0  0  0  0  0  0
   25.4624    4.5663   30.9649 C   0  0  0  0  0  0  0  0  0  0  0  0
   24.2283    4.8614   30.3873 C   0  0  0  0  0  0  0  0  0  0  0  0
   24.8678   12.3175   29.6496 H   0  0  0  0  0  0  0  0  0  0  0  0
   23.2958   13.1735   29.7995 H   0  0  0  0  0  0  0  0  0  0  0  0
   24.2973   12.8722   31.2599 H   0  0  0  0  0  0  0  0  0  0  0  0
   22.9526   10.7174   29.5282 H   0  0  0  0  0  0  0  0  0  0  0  0
   23.9541   10.4162   30.9886 H   0  0  0  0  0  0  0  0  0  0  0  0
   19.2774    7.2506   32.7689 H   0  0  0  0  0  0  0  0  0  0  0  0
   18.1382   10.3928   33.9430 H   0  0  0  0  0  0  0  0  0  0  0  0
   17.5465    9.0833   33.1676 H   0  0  0  0  0  0  0  0  0  0  0  0
   20.8394   10.4067   33.4370 H   0  0  0  0  0  0  0  0  0  0  0  0
   21.1290    3.6965   30.1101 H   0  0  0  0  0  0  0  0  0  0  0  0
   21.9272    5.0301   29.2096 H   0  0  0  0  0  0  0  0  0  0  0  0
   24.4340    2.3886   33.3509 H   0  0  0  0  0  0  0  0  0  0  0  0
   26.4933    3.4449   32.4805 H   0  0  0  0  0  0  0  0  0  0  0  0
   26.3607    5.0304   30.5852 H   0  0  0  0  0  0  0  0  0  0  0  0
   24.1749    5.5598   29.5653 H   0  0  0  0  0  0  0  0  0  0  0  0
  1  2  1  0  0  0  0
  2  3  1  0  0  0  0
  3  4  1  0  0  0  0
  4 10  1  0  0  0  0
  4  5  2  0  0  0  0
  5  6  1  0  0  0  0
  6  7  1  0  0  0  0
  6 13  2  0  0  0  0
  7  8  2  0  0  0  0
  8  9  1  0  0  0  0
  8 10  1  0  0  0  0
 10 11  1  0  0  0  0
 11 12  3  0  0  0  0
 13 14  1  0  0  0  0
 14 15  2  0  0  0  0
 14 16  1  0  0  0  0
 16 17  1  0  0  0  0
 17 23  2  0  0  0  0
 17 18  1  0  0  0  0
 18 19  1  0  0  0  0
 18 20  2  0  0  0  0
 20 21  1  0  0  0  0
 21 22  2  0  0  0  0
 22 23  1  0  0  0  0
  1 24  1  0  0  0  0
  1 25  1  0  0  0  0
  1 26  1  0  0  0  0
  2 27  1  0  0  0  0
  2 28  1  0  0  0  0
  7 29  1  0  0  0  0
  9 30  1  0  0  0  0
  9 31  1  0  0  0  0
 10 32  1  0  0  0  0
 16 33  1  0  0  0  0
 16 34  1  0  0  0  0
 20 35  1  0  0  0  0
 21 36  1  0  0  0  0
 22 37  1  0  0  0  0
 23 38  1  0  0  0  0
M  END
> <i_m_stars>
0

> <r_user_dG.exp>
-8.105004

$$$$
18625-1
  -OEChem-05192314073D
 Structure written by MMmdl.
 38 39  0     0  0  0  0  0  0999 V2000
   23.9836   12.4667   30.2867 C   0  0  0  0  0  0  0  0  0  0  0  0
   23.2737   11.1272   30.4972 C   0  0  0  0  0  0  0  0  0  0  0  0
   22.1371   11.3623   31.3251 O   0  0  0  0  0  0  0  0  0  0  0  0
   21.3544   10.2954   31.7327 C   0  0  0  0  0  0  0  0  0  0  0  0
   21.7200    9.0555   31.3102 N   0  0  0  0  0  0  0  0  0  0  0  0
   20.9619    8.0098   31.6663 C   0  0  0  0  0  0  0  0  0  0  0  0
   19.8426    8.1238   32.4782 C   0  0  0  0  0  0  0  0  0  0  0  0
   19.4695    9.3867   32.9059 C   0  0  0  0  0  0  0  0  0  0  0  0
   18.3212    9.4436   33.6872 N   0  0  0  0  0  0  0  0  0  0  0  0
   20.2252   10.5101   32.5303 C   0  0  0  0  0  0  0  0  0  0  0  0
   19.8753   11.8722   32.9144 C   0  0  0  0  0  0  0  0  0  0  0  0
   19.6057   12.9576   33.2124 N   0  0  0  0  0  0  0  0  0  0  0  0
   21.4575    6.8521   31.1054 N   0  0  0  0  0  0  0  0  0  0  0  0
   20.9156    5.6355   31.0009 C   0  0  0  0  0  0  0  0  0  0  0  0
   19.8099    5.3226   31.4377 O   0  0  0  0  0  0  0  0  0  0  0  0
   21.7255    4.6155   30.2083 C   0  0  0  0  0  0  0  0  0  0  0  0
   23.0587    4.2602   30.8639 C   0  0  0  0  0  0  0  0  0  0  0  0
   23.1402    3.3559   31.9374 C   0  0  0  0  0  0  0  0  0  0  0  0
   21.7341    2.5734   32.5724 Cl  0  0  0  0  0  0  0  0  0  0  0  0
   24.3761    3.0744   32.5186 C   0  0  0  0  0  0  0  0  0  0  0  0
   25.5378    3.6730   32.0318 C   0  0  0  0  0  0  0  0  0  0  0  0
   25.4624    4.5663   30.9649 C   0  0  0  0  0  0  0  0  0  0  0  0
   24.2283    4.8614   30.3873 C   0  0  0  0  0  0  0  0  0  0  0  0
   24.8678   12.3175   29.6496 H   0  0  0  0  0  0  0  0  0  0  0  0
   23.2958   13.1735   29.7995 H   0  0  0  0  0  0  0  0  0  0  0  0
   24.2973   12.8722   31.2599 H   0  0  0  0  0  0  0  0  0  0  0  0
   22.9526   10.7174   29.5282 H   0  0  0  0  0  0  0  0  0  0  0  0
   23.9541   10.4162   30.9886 H   0  0  0  0  0  0  0  0  0  0  0  0
   18.9920    7.7036   31.9215 H   0  0  0  0  0  0  0  0  0  0  0  0
   20.0285    7.5170   33.3767 H   0  0  0  0  0  0  0  0  0  0  0  0
   18.1382   10.3928   33.9430 H   0  0  0  0  0  0  0  0  0  0  0  0
   17.5465    9.0833   33.1676 H   0  0  0  0  0  0  0  0  0  0  0  0
   21.1290    3.6965   30.1101 H   0  0  0  0  0  0  0  0  0  0  0  0
   21.9272    5.0301   29.2096 H   0  0  0  0  0  0  0  0  0  0  0  0
   24.4340    2.3886   33.3509 H   0  0  0  0  0  0  0  0  0  0  0  0
   26.4933    3.4449   32.4805 H   0  0  0  0  0  0  0  0  0  0  0  0
   26.3607    5.0304   30.5852 H   0  0  0  0  0  0  0  0  0  0  0  0
   24.1749    5.5598   29.5653 H   0  0  0  0  0  0  0  0  0  0  0  0
  1  2  1  0  0  0  0
  2  3  1  0  0  0  0
  3  4  1  0  0  0  0
  4 10  1  0  0  0  0
  4  5  2  0  0  0  0
  5  6  1  0  0  0  0
  6  7  1  0  0  0  0
  6 13  2  0  0  0  0
  7  8  1  0  0  0  0
  8  9  1  0  0  0  0
  8 10  2  0  0  0  0
 10 11  1  0  0  0  0
 11 12  3  0  0  0  0
 13 14  1  0  0  0  0
 14 15  2  0  0  0  0
 14 16  1  0  0  0  0
 16 17  1  0  0  0  0
 17 23  2  0  0  0  0
 17 18  1  0  0  0  0
 18 19  1  0  0  0  0
 18 20  2  0  0  0  0
 20 21  1  0  0  0  0
 21 22  2  0  0  0  0
 22 23  1  0  0  0  0
  1 24  1  0  0  0  0
  1 25  1  0  0  0  0
  1 26  1  0  0  0  0
  2 27  1  0  0  0  0
  2 28  1  0  0  0  0
  7 29  1  0  0  0  0
  7 30  1  0  0  0  0
  9 31  1  0  0  0  0
  9 32  1  0  0  0  0
 16 33  1  0  0  0  0
 16 34  1  0  0  0  0
 20 35  1  0  0  0  0
 21 36  1  0  0  0  0
 22 37  1  0  0  0  0
 23 38  1  0  0  0  0
M  END
> <i_m_stars>
0

> <r_user_dG.exp>
-8.105004

$$$$
18625-1
  -OEChem-05192314073D
 Structure written by MMmdl.
 38 39  0     0  0  0  0  0  0999 V2000
   23.9836   12.4667   30.2867 C   0  0  0  0  0  0  0  0  0  0  0  0
   23.2737   11.1272   30.4972 C   0  0  0  0  0  0  0  0  0  0  0  0
   22.1371   11.3623   31.3251 O   0  0  0  0  0  0  0  0  0  0  0  0
   21.3544   10.2954   31.7327 C   0  0  0  0  0  0  0  0  0  0  0  0
   21.7200    9.0555   31.3102 N   0  0  0  0  0  0  0  0  0  0  0  0
   20.9619    8.0098   31.6663 C   0  0  0  0  0  0  0  0  0  0  0  0
   19.8426    8.1238   32.4782 C   0  0  0  0  0  0  0  0  0  0  0  0
   19.4695    9.3867   32.9059 C   0  0  0  0  0  0  0  0  0  0  0  0
   18.3212    9.4436   33.6872 N   0  0  0  0  0  0  0  0  0  0  0  0
   20.2252   10.5101   32.5303 C   0  0  0  0  0  0  0  0  0  0  0  0
   19.8753   11.8722   32.9144 C   0  0  0  0  0  0  0  0  0  0  0  0
   19.6057   12.9576   33.2124 N   0  0  0  0  0  0  0  0  0  0  0  0
   21.4575    6.8521   31.1054 N   0  0  0  0  0  0  0  0  0  0  0  0
   20.9156    5.6355   31.0009 C   0  0  0  0  0  0  0  0  0  0  0  0
   19.8099    5.3226   31.4377 O   0  0  0  0  0  0  0  0  0  0  0  0
   21.7255    4.6155   30.2083 C   0  0  0  0  0  0  0  0  0  0  0  0
   23.0587    4.2602   30.8639 C   0  0  0  0  0  0  0  0  0  0  0  0
   23.1402    3.3559   31.9374 C   0  0  0  0  0  0  0  0  0  0  0  0
   21.7341    2.5734   32.5724 Cl  0  0  0  0  0  0  0  0  0  0  0  0
   24.3761    3.0744   32.5186 C   0  0  0  0  0  0  0  0  0  0  0  0
   25.5378    3.6730   32.0318 C   0  0  0  0  0  0  0  0  0  0  0  0
   25.4624    4.5663   30.9649 C   0  0  0  0  0  0  0  0  0  0  0  0
   24.2283    4.8614   30.3873 C   0  0  0  0  0  0  0  0  0  0  0  0
   24.8678   12.3175   29.6496 H   0  0  0  0  0  0  0  0  0  0  0  0
   23.2958   13.1735   29.7995 H   0  0  0  0  0  0  0  0  0  0  0  0
   24.2973   12.8722   31.2599 H   0  0  0  0  0  0  0  0  0  0  0  0
   22.9526   10.7174   29.5282 H   0  0  0  0  0  0  0  0  0  0  0  0
   23.9541   10.4162   30.9886 H   0  0  0  0  0  0  0  0  0  0  0  0
   22.5360    8.9272   30.7466 H   0  0  0  0  0  0  0  0  0  0  0  0
   18.9920    7.7036   31.9215 H   0  0  0  0  0  0  0  0  0  0  0  0
   20.0285    7.5170   33.3767 H   0  0  0  0  0  0  0  0  0  0  0  0
   18.0944   10.3808   33.9521 H   0  0  0  0  0  0  0  0  0  0  0  0
   21.1290    3.6965   30.1101 H   0  0  0  0  0  0  0  0  0  0  0  0
   21.9272    5.0301   29.2096 H   0  0  0  0  0  0  0  0  0  0  0  0
   24.4340    2.3886   33.3509 H   0  0  0  0  0  0  0  0  0  0  0  0
   26.4933    3.4449   32.4805 H   0  0  0  0  0  0  0  0  0  0  0  0
   26.3607    5.0304   30.5852 H   0  0  0  0  0  0  0  0  0  0  0  0
   24.1749    5.5598   29.5653 H   0  0  0  0  0  0  0  0  0  0  0  0
  1  2  1  0  0  0  0
  2  3  1  0  0  0  0
  3  4  1  0  0  0  0
  4 10  2  0  0  0  0
  4  5  1  0  0  0  0
  5  6  1  0  0  0  0
  6  7  1  0  0  0  0
  6 13  2  0  0  0  0
  7  8  1  0  0  0  0
  8  9  2  0  0  0  0
  8 10  1  0  0  0  0
 10 11  1  0  0  0  0
 11 12  3  0  0  0  0
 13 14  1  0  0  0  0
 14 15  2  0  0  0  0
 14 16  1  0  0  0  0
 16 17  1  0  0  0  0
 17 23  2  0  0  0  0
 17 18  1  0  0  0  0
 18 19  1  0  0  0  0
 18 20  2  0  0  0  0
 20 21  1  0  0  0  0
 21 22  2  0  0  0  0
 22 23  1  0  0  0  0
  1 24  1  0  0  0  0
  1 25  1  0  0  0  0
  1 26  1  0  0  0  0
  2 27  1  0  0  0  0
  2 28  1  0  0  0  0
  5 29  1  0  0  0  0
  7 30  1  0  0  0  0
  7 31  1  0  0  0  0
  9 32  1  0  0  0  0
 16 33  1  0  0  0  0
 16 34  1  0  0  0  0
 20 35  1  0  0  0  0
 21 36  1  0  0  0  0
 22 37  1  0  0  0  0
 23 38  1  0  0  0  0
M  END
> <i_m_stars>
0

> <r_user_dG.exp>
-8.105004

$$$$
18625-1
  -OEChem-05192314073D
 Structure written by MMmdl.
 38 39  0     1  0  0  0  0  0999 V2000
   23.9836   12.4667   30.2867 C   0  0  0  0  0  0  0  0  0  0  0  0
   23.2737   11.1272   30.4972 C   0  0  0  0  0  0  0  0  0  0  0  0
   22.1371   11.3623   31.3251 O   0  0  0  0  0  0  0  0  0  0  0  0
   21.3544   10.2954   31.7327 C   0  0  0  0  0  0  0  0  0  0  0  0
   21.7200    9.0555   31.3102 N   0  0  0  0  0  0  0  0  0  0  0  0
   20.9619    8.0098   31.6663 C   0  0  0  0  0  0  0  0  0  0  0  0
   19.8426    8.1238   32.4782 C   0  0  0  0  0  0  0  0  0  0  0  0
   19.4695    9.3867   32.9059 C   0  0  0  0  0  0  0  0  0  0  0  0
   18.3212    9.4436   33.6872 N   0  0  0  0  0  0  0  0  0  0  0  0
   20.2252   10.5101   32.5303 C   0  0  3  0  0  0  0  0  0  0  0  0
   19.8753   11.8722   32.9144 C   0  0  0  0  0  0  0  0  0  0  0  0
   19.6057   12.9576   33.2124 N   0  0  0  0  0  0  0  0  0  0  0  0
   21.4575    6.8521   31.1054 N   0  0  0  0  0  0  0  0  0  0  0  0
   20.9156    5.6355   31.0009 C   0  0  0  0  0  0  0  0  0  0  0  0
   19.8099    5.3226   31.4377 O   0  0  0  0  0  0  0  0  0  0  0  0
   21.7255    4.6155   30.2083 C   0  0  0  0  0  0  0  0  0  0  0  0
   23.0587    4.2602   30.8639 C   0  0  0  0  0  0  0  0  0  0  0  0
   23.1402    3.3559   31.9374 C   0  0  0  0  0  0  0  0  0  0  0  0
   21.7341    2.5734   32.5724 Cl  0  0  0  0  0  0  0  0  0  0  0  0
   24.3761    3.0744   32.5186 C   0  0  0  0  0  0  0  0  0  0  0  0
   25.5378    3.6730   32.0318 C   0  0  0  0  0  0  0  0  0  0  0  0
   25.4624    4.5663   30.9649 C   0  0  0  0  0  0  0  0  0  0  0  0
   24.2283    4.8614   30.3873 C   0  0  0  0  0  0  0  0  0  0  0  0
   24.8678   12.3175   29.6496 H   0  0  0  0  0  0  0  0  0  0  0  0
   23.2958   13.1735   29.7995 H   0  0  0  0  0  0  0  0  0  0  0  0
   24.2973   12.8722   31.2599 H   0  0  0  0  0  0  0  0  0  0  0  0
   22.9526   10.7174   29.5282 H   0  0  0  0  0  0  0  0  0  0  0  0
   23.9541   10.4162   30.9886 H   0  0  0  0  0  0  0  0  0  0  0  0
   19.2774    7.2506   32.7689 H   0  0  0  0  0  0  0  0  0  0  0  0
   18.0944   10.3808   33.9521 H   0  0  0  0  0  0  0  0  0  0  0  0
   20.8394   10.4067   33.4370 H   0  0  0  0  0  0  0  0  0  0  0  0
   19.6401    4.4080   31.2451 H   0  0  0  0  0  0  0  0  0  0  0  0
   21.1290    3.6965   30.1101 H   0  0  0  0  0  0  0  0  0  0  0  0
   21.9272    5.0301   29.2096 H   0  0  0  0  0  0  0  0  0  0  0  0
   24.4340    2.3886   33.3509 H   0  0  0  0  0  0  0  0  0  0  0  0
   26.4933    3.4449   32.4805 H   0  0  0  0  0  0  0  0  0  0  0  0
   26.3607    5.0304   30.5852 H   0  0  0  0  0  0  0  0  0  0  0  0
   24.1749    5.5598   29.5653 H   0  0  0  0  0  0  0  0  0  0  0  0
  1  2  1  0  0  0  0
  2  3  1  0  0  0  0
  3  4  1  0  0  0  0
  4 10  1  0  0  0  0
  4  5  2  0  0  0  0
  5  6  1  0  0  0  0
  6  7  2  0  0  0  0
  6 13  1  0  0  0  0
  7  8  1  0  0  0  0
  8  9  2  0  0  0  0
  8 10  1  0  0  0  0
 10 11  1  0  0  0  0
 11 12  3  0  0  0  0
 13 14  2  0  0  0  0
 14 15  1  0  0  0  0
 14 16  1  0  0  0  0
 16 17  1  0  0  0  0
 17 23  2  0  0  0  0
 17 18  1  0  0  0  0
 18 19  1  0  0  0  0
 18 20  2  0  0  0  0
 20 21  1  0  0  0  0
 21 22  2  0  0  0  0
 22 23  1  0  0  0  0
  1 24  1  0  0  0  0
  1 25  1  0  0  0  0
  1 26  1  0  0  0  0
  2 27  1  0  0  0  0
  2 28  1  0  0  0  0
  7 29  1  0  0  0  0
  9 30  1  0  0  0  0
 10 31  1  0  0  0  0
 15 32  1  0  0  0  0
 16 33  1  0  0  0  0
 16 34  1  0  0  0  0
 20 35  1  0  0  0  0
 21 36  1  0  0  0  0
 22 37  1  0  0  0  0
 23 38  1  0  0  0  0
M  END
> <i_m_stars>
0

> <r_user_dG.exp>
-8.105004

$$$$
18625-1
  -OEChem-05192314073D
 Structure written by MMmdl.
 38 39  0     0  0  0  0  0  0999 V2000
   23.9836   12.4667   30.2867 C   0  0  0  0  0  0  0  0  0  0  0  0
   23.2737   11.1272   30.4972 C   0  0  0  0  0  0  0  0  0  0  0  0
   22.1371   11.3623   31.3251 O   0  0  0  0  0  0  0  0  0  0  0  0
   21.3544   10.2954   31.7327 C   0  0  0  0  0  0  0  0  0  0  0  0
   21.7200    9.0555   31.3102 N   0  0  0  0  0  0  0  0  0  0  0  0
   20.9619    8.0098   31.6663 C   0  0  0  0  0  0  0  0  0  0  0  0
   19.8426    8.1238   32.4782 C   0  0  0  0  0  0  0  0  0  0  0  0
   19.4695    9.3867   32.9059 C   0  0  0  0  0  0  0  0  0  0  0  0
   18.3212    9.4436   33.6872 N   0  0  0  0  0  0  0  0  0  0  0  0
   20.2252   10.5101   32.5303 C   0  0  0  0  0  0  0  0  0  0  0  0
   19.8753   11.8722   32.9144 C   0  0  0  0  0  0  0  0  0  0  0  0
   19.6057   12.9576   33.2124 N   0  0  0  0  0  0  0  0  0  0  0  0
   21.4575    6.8521   31.1054 N   0  0  0  0  0  0  0  0  0  0  0  0
   20.9156    5.6355   31.0009 C   0  0  0  0  0  0  0  0  0  0  0  0
   19.8099    5.3226   31.4377 O   0  0  0  0  0  0  0  0  0  0  0  0
   21.7255    4.6155   30.2083 C   0  0  0  0  0  0  0  0  0  0  0  0
   23.0587    4.2602   30.8639 C   0  0  0  0  0  0  0  0  0  0  0  0
   23.1402    3.3559   31.9374 C   0  0  0  0  0  0  0  0  0  0  0  0
   21.7341    2.5734   32.5724 Cl  0  0  0  0  0  0  0  0  0  0  0  0
   24.3761    3.0744   32.5186 C   0  0  0  0  0  0  0  0  0  0  0  0
   25.5378    3.6730   32.0318 C   0  0  0  0  0  0  0  0  0  0  0  0
   25.4624    4.5663   30.9649 C   0  0  0  0  0  0  0  0  0  0  0  0
   24.2283    4.8614   30.3873 C   0  0  0  0  0  0  0  0  0  0  0  0
   24.8678   12.3175   29.6496 H   0  0  0  0  0  0  0  0  0  0  0  0
   23.2958   13.1735   29.7995 H   0  0  0  0  0  0  0  0  0  0  0  0
   24.2973   12.8722   31.2599 H   0  0  0  0  0  0  0  0  0  0  0  0
   22.9526   10.7174   29.5282 H   0  0  0  0  0  0  0  0  0  0  0  0
   23.9541   10.4162   30.9886 H   0  0  0  0  0  0  0  0  0  0  0  0
   18.9920    7.7036   31.9215 H   0  0  0  0  0  0  0  0  0  0  0  0
   20.0285    7.5170   33.3767 H   0  0  0  0  0  0  0  0  0  0  0  0
   18.0944   10.3808   33.9521 H   0  0  0  0  0  0  0  0  0  0  0  0
   19.6401    4.4080   31.2451 H   0  0  0  0  0  0  0  0  0  0  0  0
   21.1290    3.6965   30.1101 H   0  0  0  0  0  0  0  0  0  0  0  0
   21.9272    5.0301   29.2096 H   0  0  0  0  0  0  0  0  0  0  0  0
   24.4340    2.3886   33.3509 H   0  0  0  0  0  0  0  0  0  0  0  0
   26.4933    3.4449   32.4805 H   0  0  0  0  0  0  0  0  0  0  0  0
   26.3607    5.0304   30.5852 H   0  0  0  0  0  0  0  0  0  0  0  0
   24.1749    5.5598   29.5653 H   0  0  0  0  0  0  0  0  0  0  0  0
  1  2  1  0  0  0  0
  2  3  1  0  0  0  0
  3  4  1  0  0  0  0
  4 10  2  0  0  0  0
  4  5  1  0  0  0  0
  5  6  2  0  0  0  0
  6  7  1  0  0  0  0
  6 13  1  0  0  0  0
  7  8  1  0  0  0  0
  8  9  2  0  0  0  0
  8 10  1  0  0  0  0
 10 11  1  0  0  0  0
 11 12  3  0  0  0  0
 13 14  2  0  0  0  0
 14 15  1  0  0  0  0
 14 16  1  0  0  0  0
 16 17  1  0  0  0  0
 17 23  2  0  0  0  0
 17 18  1  0  0  0  0
 18 19  1  0  0  0  0
 18 20  2  0  0  0  0
 20 21  1  0  0  0  0
 21 22  2  0  0  0  0
 22 23  1  0  0  0  0
  1 24  1  0  0  0  0
  1 25  1  0  0  0  0
  1 26  1  0  0  0  0
  2 27  1  0  0  0  0
  2 28  1  0  0  0  0
  7 29  1  0  0  0  0
  7 30  1  0  0  0  0
  9 31  1  0  0  0  0
 15 32  1  0  0  0  0
 16 33  1  0  0  0  0
 16 34  1  0  0  0  0
 20 35  1  0  0  0  0
 21 36  1  0  0  0  0
 22 37  1  0  0  0  0
 23 38  1  0  0  0  0
M  END
> <i_m_stars>
0

> <r_user_dG.exp>
-8.105004

$$$$
