18634-1
  -OEChem-05192314073D
 Structure written by MMmdl.
 46 47  0     0  0  0  0  0  0999 V2000
   24.0733   12.4028   30.2323 C   0  0  0  0  0  0  0  0  0  0  0  0
   23.3271   11.0818   30.4341 C   0  0  0  0  0  0  0  0  0  0  0  0
   22.2086   11.3387   31.2785 O   0  0  0  0  0  0  0  0  0  0  0  0
   21.4076   10.2889   31.6938 C   0  0  0  0  0  0  0  0  0  0  0  0
   21.7457    9.0394   31.2730 N   0  0  0  0  0  0  0  0  0  0  0  0
   20.9690    8.0101   31.6444 C   0  0  0  0  0  0  0  0  0  0  0  0
   19.8628    8.1544   32.4699 C   0  0  0  0  0  0  0  0  0  0  0  0
   19.5194    9.4254   32.8937 C   0  0  0  0  0  0  0  0  0  0  0  0
   18.3843    9.5057   33.6914 N   0  0  0  0  0  0  0  0  0  0  0  0
   20.2911   10.5310   32.5018 C   0  0  0  0  0  0  0  0  0  0  0  0
   19.9686   11.9007   32.8839 C   0  0  0  0  0  0  0  0  0  0  0  0
   19.7198   12.9914   33.1811 N   0  0  0  0  0  0  0  0  0  0  0  0
   21.4264    6.8283   31.0989 N   0  0  0  0  0  0  0  0  0  0  0  0
   20.8492    5.6257   31.0244 C   0  0  0  0  0  0  0  0  0  0  0  0
   19.7218    5.3642   31.4396 O   0  0  0  0  0  0  0  0  0  0  0  0
   21.6453    4.5492   30.2959 C   0  0  0  0  0  0  0  0  0  0  0  0
   23.0487    4.3416   30.8592 C   0  0  0  0  0  0  0  0  0  0  0  0
   24.1093    5.1752   30.4706 C   0  0  0  0  0  0  0  0  0  0  0  0
   23.8251    6.2111   29.5994 O   0  0  0  0  0  0  0  0  0  0  0  0
   24.7824    7.2540   29.4258 C   0  0  0  0  0  0  0  0  0  0  0  0
   25.3879    4.9247   30.9874 C   0  0  0  0  0  0  0  0  0  0  0  0
   25.5914    3.9088   31.9220 C   0  0  0  0  0  0  0  0  0  0  0  0
   24.5221    3.1087   32.3472 C   0  0  0  0  0  0  0  0  0  0  0  0
   23.2656    3.3183   31.7864 C   0  0  0  0  0  0  0  0  0  0  0  0
   24.6165    2.1143   33.2977 O   0  0  0  0  0  0  0  0  0  0  0  0
   25.8225    1.9829   34.0425 C   0  0  0  0  0  0  0  0  0  0  0  0
   24.9451   12.2365   29.5824 H   0  0  0  0  0  0  0  0  0  0  0  0
   23.4007   13.1357   29.7629 H   0  0  0  0  0  0  0  0  0  0  0  0
   24.4104   12.7859   31.2068 H   0  0  0  0  0  0  0  0  0  0  0  0
   22.9825   10.6945   29.4639 H   0  0  0  0  0  0  0  0  0  0  0  0
   23.9922   10.3448   30.9078 H   0  0  0  0  0  0  0  0  0  0  0  0
   19.2840    7.2949   32.7741 H   0  0  0  0  0  0  0  0  0  0  0  0
   18.2208   10.4593   33.9442 H   0  0  0  0  0  0  0  0  0  0  0  0
   17.5961    9.1552   33.1856 H   0  0  0  0  0  0  0  0  0  0  0  0
   22.3389    6.8803   30.6930 H   0  0  0  0  0  0  0  0  0  0  0  0
   21.0960    3.5992   30.3716 H   0  0  0  0  0  0  0  0  0  0  0  0
   21.7342    4.8381   29.2382 H   0  0  0  0  0  0  0  0  0  0  0  0
   24.3975    7.9893   28.7038 H   0  0  0  0  0  0  0  0  0  0  0  0
   24.9644    7.7489   30.3912 H   0  0  0  0  0  0  0  0  0  0  0  0
   25.7240    6.8282   29.0487 H   0  0  0  0  0  0  0  0  0  0  0  0
   26.2241    5.5241   30.6589 H   0  0  0  0  0  0  0  0  0  0  0  0
   26.5804    3.7377   32.3208 H   0  0  0  0  0  0  0  0  0  0  0  0
   22.4436    2.6790   32.0727 H   0  0  0  0  0  0  0  0  0  0  0  0
   25.7273    1.1469   34.7510 H   0  0  0  0  0  0  0  0  0  0  0  0
   26.6585    1.7872   33.3549 H   0  0  0  0  0  0  0  0  0  0  0  0
   26.0140    2.9134   34.5971 H   0  0  0  0  0  0  0  0  0  0  0  0
  1  2  1  0  0  0  0
  2  3  1  0  0  0  0
  3  4  1  0  0  0  0
  4 10  2  0  0  0  0
  4  5  1  0  0  0  0
  5  6  2  0  0  0  0
  6  7  1  0  0  0  0
  6 13  1  0  0  0  0
  7  8  2  0  0  0  0
  8  9  1  0  0  0  0
  8 10  1  0  0  0  0
 10 11  1  0  0  0  0
 11 12  3  0  0  0  0
 13 14  1  0  0  0  0
 14 15  2  0  0  0  0
 14 16  1  0  0  0  0
 16 17  1  0  0  0  0
 17 24  2  0  0  0  0
 17 18  1  0  0  0  0
 18 19  1  0  0  0  0
 18 21  2  0  0  0  0
 19 20  1  0  0  0  0
 21 22  1  0  0  0  0
 22 23  2  0  0  0  0
 23 24  1  0  0  0  0
 23 25  1  0  0  0  0
 25 26  1  0  0  0  0
  1 27  1  0  0  0  0
  1 28  1  0  0  0  0
  1 29  1  0  0  0  0
  2 30  1  0  0  0  0
  2 31  1  0  0  0  0
  7 32  1  0  0  0  0
  9 33  1  0  0  0  0
  9 34  1  0  0  0  0
 13 35  1  0  0  0  0
 16 36  1  0  0  0  0
 16 37  1  0  0  0  0
 20 38  1  0  0  0  0
 20 39  1  0  0  0  0
 20 40  1  0  0  0  0
 21 41  1  0  0  0  0
 22 42  1  0  0  0  0
 24 43  1  0  0  0  0
 26 44  1  0  0  0  0
 26 45  1  0  0  0  0
 26 46  1  0  0  0  0
M  END
> <i_m_stars>
0

> <r_user_dG.exp>
-9.993231

$$$$
18634-1
  -OEChem-05192314073D
 Structure written by MMmdl.
 46 47  0     0  0  0  0  0  0999 V2000
   24.0733   12.4028   30.2323 C   0  0  0  0  0  0  0  0  0  0  0  0
   23.3271   11.0818   30.4341 C   0  0  0  0  0  0  0  0  0  0  0  0
   22.2086   11.3387   31.2785 O   0  0  0  0  0  0  0  0  0  0  0  0
   21.4076   10.2889   31.6938 C   0  0  0  0  0  0  0  0  0  0  0  0
   21.7457    9.0394   31.2730 N   0  0  0  0  0  0  0  0  0  0  0  0
   20.9690    8.0101   31.6444 C   0  0  0  0  0  0  0  0  0  0  0  0
   19.8628    8.1544   32.4699 C   0  0  0  0  0  0  0  0  0  0  0  0
   19.5194    9.4254   32.8937 C   0  0  0  0  0  0  0  0  0  0  0  0
   18.3843    9.5057   33.6914 N   0  0  0  0  0  0  0  0  0  0  0  0
   20.2911   10.5310   32.5018 C   0  0  0  0  0  0  0  0  0  0  0  0
   19.9686   11.9007   32.8839 C   0  0  0  0  0  0  0  0  0  0  0  0
   19.7198   12.9914   33.1811 N   0  0  0  0  0  0  0  0  0  0  0  0
   21.4264    6.8283   31.0989 N   0  0  0  0  0  0  0  0  0  0  0  0
   20.8492    5.6257   31.0244 C   0  0  0  0  0  0  0  0  0  0  0  0
   19.7218    5.3642   31.4396 O   0  0  0  0  0  0  0  0  0  0  0  0
   21.6453    4.5492   30.2959 C   0  0  0  0  0  0  0  0  0  0  0  0
   23.0487    4.3416   30.8592 C   0  0  0  0  0  0  0  0  0  0  0  0
   24.1093    5.1752   30.4706 C   0  0  0  0  0  0  0  0  0  0  0  0
   23.8251    6.2111   29.5994 O   0  0  0  0  0  0  0  0  0  0  0  0
   24.7824    7.2540   29.4258 C   0  0  0  0  0  0  0  0  0  0  0  0
   25.3879    4.9247   30.9874 C   0  0  0  0  0  0  0  0  0  0  0  0
   25.5914    3.9088   31.9220 C   0  0  0  0  0  0  0  0  0  0  0  0
   24.5221    3.1087   32.3472 C   0  0  0  0  0  0  0  0  0  0  0  0
   23.2656    3.3183   31.7864 C   0  0  0  0  0  0  0  0  0  0  0  0
   24.6165    2.1143   33.2977 O   0  0  0  0  0  0  0  0  0  0  0  0
   25.8225    1.9829   34.0425 C   0  0  0  0  0  0  0  0  0  0  0  0
   24.9451   12.2365   29.5824 H   0  0  0  0  0  0  0  0  0  0  0  0
   23.4007   13.1357   29.7629 H   0  0  0  0  0  0  0  0  0  0  0  0
   24.4104   12.7859   31.2068 H   0  0  0  0  0  0  0  0  0  0  0  0
   22.9825   10.6945   29.4639 H   0  0  0  0  0  0  0  0  0  0  0  0
   23.9922   10.3448   30.9078 H   0  0  0  0  0  0  0  0  0  0  0  0
   19.2840    7.2949   32.7741 H   0  0  0  0  0  0  0  0  0  0  0  0
   18.2208   10.4593   33.9442 H   0  0  0  0  0  0  0  0  0  0  0  0
   17.5961    9.1552   33.1856 H   0  0  0  0  0  0  0  0  0  0  0  0
   19.5284    4.4484   31.2769 H   0  0  0  0  0  0  0  0  0  0  0  0
   21.0960    3.5992   30.3716 H   0  0  0  0  0  0  0  0  0  0  0  0
   21.7342    4.8381   29.2382 H   0  0  0  0  0  0  0  0  0  0  0  0
   24.3975    7.9893   28.7038 H   0  0  0  0  0  0  0  0  0  0  0  0
   24.9644    7.7489   30.3912 H   0  0  0  0  0  0  0  0  0  0  0  0
   25.7240    6.8282   29.0487 H   0  0  0  0  0  0  0  0  0  0  0  0
   26.2241    5.5241   30.6589 H   0  0  0  0  0  0  0  0  0  0  0  0
   26.5804    3.7377   32.3208 H   0  0  0  0  0  0  0  0  0  0  0  0
   22.4436    2.6790   32.0727 H   0  0  0  0  0  0  0  0  0  0  0  0
   25.7273    1.1469   34.7510 H   0  0  0  0  0  0  0  0  0  0  0  0
   26.6585    1.7872   33.3549 H   0  0  0  0  0  0  0  0  0  0  0  0
   26.0140    2.9134   34.5971 H   0  0  0  0  0  0  0  0  0  0  0  0
  1  2  1  0  0  0  0
  2  3  1  0  0  0  0
  3  4  1  0  0  0  0
  4 10  2  0  0  0  0
  4  5  1  0  0  0  0
  5  6  2  0  0  0  0
  6  7  1  0  0  0  0
  6 13  1  0  0  0  0
  7  8  2  0  0  0  0
  8  9  1  0  0  0  0
  8 10  1  0  0  0  0
 10 11  1  0  0  0  0
 11 12  3  0  0  0  0
 13 14  2  0  0  0  0
 14 15  1  0  0  0  0
 14 16  1  0  0  0  0
 16 17  1  0  0  0  0
 17 24  2  0  0  0  0
 17 18  1  0  0  0  0
 18 19  1  0  0  0  0
 18 21  2  0  0  0  0
 19 20  1  0  0  0  0
 21 22  1  0  0  0  0
 22 23  2  0  0  0  0
 23 24  1  0  0  0  0
 23 25  1  0  0  0  0
 25 26  1  0  0  0  0
  1 27  1  0  0  0  0
  1 28  1  0  0  0  0
  1 29  1  0  0  0  0
  2 30  1  0  0  0  0
  2 31  1  0  0  0  0
  7 32  1  0  0  0  0
  9 33  1  0  0  0  0
  9 34  1  0  0  0  0
 15 35  1  0  0  0  0
 16 36  1  0  0  0  0
 16 37  1  0  0  0  0
 20 38  1  0  0  0  0
 20 39  1  0  0  0  0
 20 40  1  0  0  0  0
 21 41  1  0  0  0  0
 22 42  1  0  0  0  0
 24 43  1  0  0  0  0
 26 44  1  0  0  0  0
 26 45  1  0  0  0  0
 26 46  1  0  0  0  0
M  END
> <i_m_stars>
0

> <r_user_dG.exp>
-9.993231

$$$$
18634-1
  -OEChem-05192314073D
 Structure written by MMmdl.
 46 47  0     0  0  0  0  0  0999 V2000
   24.0733   12.4028   30.2323 C   0  0  0  0  0  0  0  0  0  0  0  0
   23.3271   11.0818   30.4341 C   0  0  0  0  0  0  0  0  0  0  0  0
   22.2086   11.3387   31.2785 O   0  0  0  0  0  0  0  0  0  0  0  0
   21.4076   10.2889   31.6938 C   0  0  0  0  0  0  0  0  0  0  0  0
   21.7457    9.0394   31.2730 N   0  0  0  0  0  0  0  0  0  0  0  0
   20.9690    8.0101   31.6444 C   0  0  0  0  0  0  0  0  0  0  0  0
   19.8628    8.1544   32.4699 C   0  0  0  0  0  0  0  0  0  0  0  0
   19.5194    9.4254   32.8937 C   0  0  0  0  0  0  0  0  0  0  0  0
   18.3843    9.5057   33.6914 N   0  0  0  0  0  0  0  0  0  0  0  0
   20.2911   10.5310   32.5018 C   0  0  0  0  0  0  0  0  0  0  0  0
   19.9686   11.9007   32.8839 C   0  0  0  0  0  0  0  0  0  0  0  0
   19.7198   12.9914   33.1811 N   0  0  0  0  0  0  0  0  0  0  0  0
   21.4264    6.8283   31.0989 N   0  0  0  0  0  0  0  0  0  0  0  0
   20.8492    5.6257   31.0244 C   0  0  0  0  0  0  0  0  0  0  0  0
   19.7218    5.3642   31.4396 O   0  0  0  0  0  0  0  0  0  0  0  0
   21.6453    4.5492   30.2959 C   0  0  0  0  0  0  0  0  0  0  0  0
   23.0487    4.3416   30.8592 C   0  0  0  0  0  0  0  0  0  0  0  0
   24.1093    5.1752   30.4706 C   0  0  0  0  0  0  0  0  0  0  0  0
   23.8251    6.2111   29.5994 O   0  0  0  0  0  0  0  0  0  0  0  0
   24.7824    7.2540   29.4258 C   0  0  0  0  0  0  0  0  0  0  0  0
   25.3879    4.9247   30.9874 C   0  0  0  0  0  0  0  0  0  0  0  0
   25.5914    3.9088   31.9220 C   0  0  0  0  0  0  0  0  0  0  0  0
   24.5221    3.1087   32.3472 C   0  0  0  0  0  0  0  0  0  0  0  0
   23.2656    3.3183   31.7864 C   0  0  0  0  0  0  0  0  0  0  0  0
   24.6165    2.1143   33.2977 O   0  0  0  0  0  0  0  0  0  0  0  0
   25.8225    1.9829   34.0425 C   0  0  0  0  0  0  0  0  0  0  0  0
   24.9451   12.2365   29.5824 H   0  0  0  0  0  0  0  0  0  0  0  0
   23.4007   13.1357   29.7629 H   0  0  0  0  0  0  0  0  0  0  0  0
   24.4104   12.7859   31.2068 H   0  0  0  0  0  0  0  0  0  0  0  0
   22.9825   10.6945   29.4639 H   0  0  0  0  0  0  0  0  0  0  0  0
   23.9922   10.3448   30.9078 H   0  0  0  0  0  0  0  0  0  0  0  0
   22.5528    8.8921   30.7013 H   0  0  0  0  0  0  0  0  0  0  0  0
   19.2840    7.2949   32.7741 H   0  0  0  0  0  0  0  0  0  0  0  0
   18.1785   10.4478   33.9563 H   0  0  0  0  0  0  0  0  0  0  0  0
   22.3389    6.8803   30.6930 H   0  0  0  0  0  0  0  0  0  0  0  0
   21.0960    3.5992   30.3716 H   0  0  0  0  0  0  0  0  0  0  0  0
   21.7342    4.8381   29.2382 H   0  0  0  0  0  0  0  0  0  0  0  0
   24.3975    7.9893   28.7038 H   0  0  0  0  0  0  0  0  0  0  0  0
   24.9644    7.7489   30.3912 H   0  0  0  0  0  0  0  0  0  0  0  0
   25.7240    6.8282   29.0487 H   0  0  0  0  0  0  0  0  0  0  0  0
   26.2241    5.5241   30.6589 H   0  0  0  0  0  0  0  0  0  0  0  0
   26.5804    3.7377   32.3208 H   0  0  0  0  0  0  0  0  0  0  0  0
   22.4436    2.6790   32.0727 H   0  0  0  0  0  0  0  0  0  0  0  0
   25.7273    1.1469   34.7510 H   0  0  0  0  0  0  0  0  0  0  0  0
   26.6585    1.7872   33.3549 H   0  0  0  0  0  0  0  0  0  0  0  0
   26.0140    2.9134   34.5971 H   0  0  0  0  0  0  0  0  0  0  0  0
  1  2  1  0  0  0  0
  2  3  1  0  0  0  0
  3  4  1  0  0  0  0
  4 10  2  0  0  0  0
  4  5  1  0  0  0  0
  5  6  1  0  0  0  0
  6  7  2  0  0  0  0
  6 13  1  0  0  0  0
  7  8  1  0  0  0  0
  8  9  2  0  0  0  0
  8 10  1  0  0  0  0
 10 11  1  0  0  0  0
 11 12  3  0  0  0  0
 13 14  1  0  0  0  0
 14 15  2  0  0  0  0
 14 16  1  0  0  0  0
 16 17  1  0  0  0  0
 17 24  2  0  0  0  0
 17 18  1  0  0  0  0
 18 19  1  0  0  0  0
 18 21  2  0  0  0  0
 19 20  1  0  0  0  0
 21 22  1  0  0  0  0
 22 23  2  0  0  0  0
 23 24  1  0  0  0  0
 23 25  1  0  0  0  0
 25 26  1  0  0  0  0
  1 27  1  0  0  0  0
  1 28  1  0  0  0  0
  1 29  1  0  0  0  0
  2 30  1  0  0  0  0
  2 31  1  0  0  0  0
  5 32  1  0  0  0  0
  7 33  1  0  0  0  0
  9 34  1  0  0  0  0
 13 35  1  0  0  0  0
 16 36  1  0  0  0  0
 16 37  1  0  0  0  0
 20 38  1  0  0  0  0
 20 39  1  0  0  0  0
 20 40  1  0  0  0  0
 21 41  1  0  0  0  0
 22 42  1  0  0  0  0
 24 43  1  0  0  0  0
 26 44  1  0  0  0  0
 26 45  1  0  0  0  0
 26 46  1  0  0  0  0
M  END
> <i_m_stars>
0

> <r_user_dG.exp>
-9.993231

$$$$
18634-1
  -OEChem-05192314073D
 Structure written by MMmdl.
 46 47  0     0  0  0  0  0  0999 V2000
   24.0733   12.4028   30.2323 C   0  0  0  0  0  0  0  0  0  0  0  0
   23.3271   11.0818   30.4341 C   0  0  0  0  0  0  0  0  0  0  0  0
   22.2086   11.3387   31.2785 O   0  0  0  0  0  0  0  0  0  0  0  0
   21.4076   10.2889   31.6938 C   0  0  0  0  0  0  0  0  0  0  0  0
   21.7457    9.0394   31.2730 N   0  0  0  0  0  0  0  0  0  0  0  0
   20.9690    8.0101   31.6444 C   0  0  0  0  0  0  0  0  0  0  0  0
   19.8628    8.1544   32.4699 C   0  0  0  0  0  0  0  0  0  0  0  0
   19.5194    9.4254   32.8937 C   0  0  0  0  0  0  0  0  0  0  0  0
   18.3843    9.5057   33.6914 N   0  0  0  0  0  0  0  0  0  0  0  0
   20.2911   10.5310   32.5018 C   0  0  0  0  0  0  0  0  0  0  0  0
   19.9686   11.9007   32.8839 C   0  0  0  0  0  0  0  0  0  0  0  0
   19.7198   12.9914   33.1811 N   0  0  0  0  0  0  0  0  0  0  0  0
   21.4264    6.8283   31.0989 N   0  0  0  0  0  0  0  0  0  0  0  0
   20.8492    5.6257   31.0244 C   0  0  0  0  0  0  0  0  0  0  0  0
   19.7218    5.3642   31.4396 O   0  0  0  0  0  0  0  0  0  0  0  0
   21.6453    4.5492   30.2959 C   0  0  0  0  0  0  0  0  0  0  0  0
   23.0487    4.3416   30.8592 C   0  0  0  0  0  0  0  0  0  0  0  0
   24.1093    5.1752   30.4706 C   0  0  0  0  0  0  0  0  0  0  0  0
   23.8251    6.2111   29.5994 O   0  0  0  0  0  0  0  0  0  0  0  0
   24.7824    7.2540   29.4258 C   0  0  0  0  0  0  0  0  0  0  0  0
   25.3879    4.9247   30.9874 C   0  0  0  0  0  0  0  0  0  0  0  0
   25.5914    3.9088   31.9220 C   0  0  0  0  0  0  0  0  0  0  0  0
   24.5221    3.1087   32.3472 C   0  0  0  0  0  0  0  0  0  0  0  0
   23.2656    3.3183   31.7864 C   0  0  0  0  0  0  0  0  0  0  0  0
   24.6165    2.1143   33.2977 O   0  0  0  0  0  0  0  0  0  0  0  0
   25.8225    1.9829   34.0425 C   0  0  0  0  0  0  0  0  0  0  0  0
   24.9451   12.2365   29.5824 H   0  0  0  0  0  0  0  0  0  0  0  0
   23.4007   13.1357   29.7629 H   0  0  0  0  0  0  0  0  0  0  0  0
   24.4104   12.7859   31.2068 H   0  0  0  0  0  0  0  0  0  0  0  0
   22.9825   10.6945   29.4639 H   0  0  0  0  0  0  0  0  0  0  0  0
   23.9922   10.3448   30.9078 H   0  0  0  0  0  0  0  0  0  0  0  0
   22.5528    8.8921   30.7013 H   0  0  0  0  0  0  0  0  0  0  0  0
   19.2840    7.2949   32.7741 H   0  0  0  0  0  0  0  0  0  0  0  0
   18.2208   10.4593   33.9442 H   0  0  0  0  0  0  0  0  0  0  0  0
   17.5961    9.1552   33.1856 H   0  0  0  0  0  0  0  0  0  0  0  0
   21.0960    3.5992   30.3716 H   0  0  0  0  0  0  0  0  0  0  0  0
   21.7342    4.8381   29.2382 H   0  0  0  0  0  0  0  0  0  0  0  0
   24.3975    7.9893   28.7038 H   0  0  0  0  0  0  0  0  0  0  0  0
   24.9644    7.7489   30.3912 H   0  0  0  0  0  0  0  0  0  0  0  0
   25.7240    6.8282   29.0487 H   0  0  0  0  0  0  0  0  0  0  0  0
   26.2241    5.5241   30.6589 H   0  0  0  0  0  0  0  0  0  0  0  0
   26.5804    3.7377   32.3208 H   0  0  0  0  0  0  0  0  0  0  0  0
   22.4436    2.6790   32.0727 H   0  0  0  0  0  0  0  0  0  0  0  0
   25.7273    1.1469   34.7510 H   0  0  0  0  0  0  0  0  0  0  0  0
   26.6585    1.7872   33.3549 H   0  0  0  0  0  0  0  0  0  0  0  0
   26.0140    2.9134   34.5971 H   0  0  0  0  0  0  0  0  0  0  0  0
  1  2  1  0  0  0  0
  2  3  1  0  0  0  0
  3  4  1  0  0  0  0
  4 10  2  0  0  0  0
  4  5  1  0  0  0  0
  5  6  1  0  0  0  0
  6  7  1  0  0  0  0
  6 13  2  0  0  0  0
  7  8  2  0  0  0  0
  8  9  1  0  0  0  0
  8 10  1  0  0  0  0
 10 11  1  0  0  0  0
 11 12  3  0  0  0  0
 13 14  1  0  0  0  0
 14 15  2  0  0  0  0
 14 16  1  0  0  0  0
 16 17  1  0  0  0  0
 17 24  2  0  0  0  0
 17 18  1  0  0  0  0
 18 19  1  0  0  0  0
 18 21  2  0  0  0  0
 19 20  1  0  0  0  0
 21 22  1  0  0  0  0
 22 23  2  0  0  0  0
 23 24  1  0  0  0  0
 23 25  1  0  0  0  0
 25 26  1  0  0  0  0
  1 27  1  0  0  0  0
  1 28  1  0  0  0  0
  1 29  1  0  0  0  0
  2 30  1  0  0  0  0
  2 31  1  0  0  0  0
  5 32  1  0  0  0  0
  7 33  1  0  0  0  0
  9 34  1  0  0  0  0
  9 35  1  0  0  0  0
 16 36  1  0  0  0  0
 16 37  1  0  0  0  0
 20 38  1  0  0  0  0
 20 39  1  0  0  0  0
 20 40  1  0  0  0  0
 21 41  1  0  0  0  0
 22 42  1  0  0  0  0
 24 43  1  0  0  0  0
 26 44  1  0  0  0  0
 26 45  1  0  0  0  0
 26 46  1  0  0  0  0
M  END
> <i_m_stars>
0

> <r_user_dG.exp>
-9.993231

$$$$
18634-1
  -OEChem-05192314073D
 Structure written by MMmdl.
 46 47  0     0  0  0  0  0  0999 V2000
   24.0733   12.4028   30.2323 C   0  0  0  0  0  0  0  0  0  0  0  0
   23.3271   11.0818   30.4341 C   0  0  0  0  0  0  0  0  0  0  0  0
   22.2086   11.3387   31.2785 O   0  0  0  0  0  0  0  0  0  0  0  0
   21.4076   10.2889   31.6938 C   0  0  0  0  0  0  0  0  0  0  0  0
   21.7457    9.0394   31.2730 N   0  0  0  0  0  0  0  0  0  0  0  0
   20.9690    8.0101   31.6444 C   0  0  0  0  0  0  0  0  0  0  0  0
   19.8628    8.1544   32.4699 C   0  0  0  0  0  0  0  0  0  0  0  0
   19.5194    9.4254   32.8937 C   0  0  0  0  0  0  0  0  0  0  0  0
   18.3843    9.5057   33.6914 N   0  0  0  0  0  0  0  0  0  0  0  0
   20.2911   10.5310   32.5018 C   0  0  0  0  0  0  0  0  0  0  0  0
   19.9686   11.9007   32.8839 C   0  0  0  0  0  0  0  0  0  0  0  0
   19.7198   12.9914   33.1811 N   0  0  0  0  0  0  0  0  0  0  0  0
   21.4264    6.8283   31.0989 N   0  0  0  0  0  0  0  0  0  0  0  0
   20.8492    5.6257   31.0244 C   0  0  0  0  0  0  0  0  0  0  0  0
   19.7218    5.3642   31.4396 O   0  0  0  0  0  0  0  0  0  0  0  0
   21.6453    4.5492   30.2959 C   0  0  0  0  0  0  0  0  0  0  0  0
   23.0487    4.3416   30.8592 C   0  0  0  0  0  0  0  0  0  0  0  0
   24.1093    5.1752   30.4706 C   0  0  0  0  0  0  0  0  0  0  0  0
   23.8251    6.2111   29.5994 O   0  0  0  0  0  0  0  0  0  0  0  0
   24.7824    7.2540   29.4258 C   0  0  0  0  0  0  0  0  0  0  0  0
   25.3879    4.9247   30.9874 C   0  0  0  0  0  0  0  0  0  0  0  0
   25.5914    3.9088   31.9220 C   0  0  0  0  0  0  0  0  0  0  0  0
   24.5221    3.1087   32.3472 C   0  0  0  0  0  0  0  0  0  0  0  0
   23.2656    3.3183   31.7864 C   0  0  0  0  0  0  0  0  0  0  0  0
   24.6165    2.1143   33.2977 O   0  0  0  0  0  0  0  0  0  0  0  0
   25.8225    1.9829   34.0425 C   0  0  0  0  0  0  0  0  0  0  0  0
   24.9451   12.2365   29.5824 H   0  0  0  0  0  0  0  0  0  0  0  0
   23.4007   13.1357   29.7629 H   0  0  0  0  0  0  0  0  0  0  0  0
   24.4104   12.7859   31.2068 H   0  0  0  0  0  0  0  0  0  0  0  0
   22.9825   10.6945   29.4639 H   0  0  0  0  0  0  0  0  0  0  0  0
   23.9922   10.3448   30.9078 H   0  0  0  0  0  0  0  0  0  0  0  0
   22.5528    8.8921   30.7013 H   0  0  0  0  0  0  0  0  0  0  0  0
   19.2840    7.2949   32.7741 H   0  0  0  0  0  0  0  0  0  0  0  0
   18.1785   10.4478   33.9563 H   0  0  0  0  0  0  0  0  0  0  0  0
   19.5284    4.4484   31.2769 H   0  0  0  0  0  0  0  0  0  0  0  0
   21.0960    3.5992   30.3716 H   0  0  0  0  0  0  0  0  0  0  0  0
   21.7342    4.8381   29.2382 H   0  0  0  0  0  0  0  0  0  0  0  0
   24.3975    7.9893   28.7038 H   0  0  0  0  0  0  0  0  0  0  0  0
   24.9644    7.7489   30.3912 H   0  0  0  0  0  0  0  0  0  0  0  0
   25.7240    6.8282   29.0487 H   0  0  0  0  0  0  0  0  0  0  0  0
   26.2241    5.5241   30.6589 H   0  0  0  0  0  0  0  0  0  0  0  0
   26.5804    3.7377   32.3208 H   0  0  0  0  0  0  0  0  0  0  0  0
   22.4436    2.6790   32.0727 H   0  0  0  0  0  0  0  0  0  0  0  0
   25.7273    1.1469   34.7510 H   0  0  0  0  0  0  0  0  0  0  0  0
   26.6585    1.7872   33.3549 H   0  0  0  0  0  0  0  0  0  0  0  0
   26.0140    2.9134   34.5971 H   0  0  0  0  0  0  0  0  0  0  0  0
  1  2  1  0  0  0  0
  2  3  1  0  0  0  0
  3  4  1  0  0  0  0
  4 10  2  0  0  0  0
  4  5  1  0  0  0  0
  5  6  1  0  0  0  0
  6  7  2  0  0  0  0
  6 13  1  0  0  0  0
  7  8  1  0  0  0  0
  8  9  2  0  0  0  0
  8 10  1  0  0  0  0
 10 11  1  0  0  0  0
 11 12  3  0  0  0  0
 13 14  2  0  0  0  0
 14 15  1  0  0  0  0
 14 16  1  0  0  0  0
 16 17  1  0  0  0  0
 17 24  2  0  0  0  0
 17 18  1  0  0  0  0
 18 19  1  0  0  0  0
 18 21  2  0  0  0  0
 19 20  1  0  0  0  0
 21 22  1  0  0  0  0
 22 23  2  0  0  0  0
 23 24  1  0  0  0  0
 23 25  1  0  0  0  0
 25 26  1  0  0  0  0
  1 27  1  0  0  0  0
  1 28  1  0  0  0  0
  1 29  1  0  0  0  0
  2 30  1  0  0  0  0
  2 31  1  0  0  0  0
  5 32  1  0  0  0  0
  7 33  1  0  0  0  0
  9 34  1  0  0  0  0
 15 35  1  0  0  0  0
 16 36  1  0  0  0  0
 16 37  1  0  0  0  0
 20 38  1  0  0  0  0
 20 39  1  0  0  0  0
 20 40  1  0  0  0  0
 21 41  1  0  0  0  0
 22 42  1  0  0  0  0
 24 43  1  0  0  0  0
 26 44  1  0  0  0  0
 26 45  1  0  0  0  0
 26 46  1  0  0  0  0
M  END
> <i_m_stars>
0

> <r_user_dG.exp>
-9.993231

$$$$
18634-1
  -OEChem-05192314073D
 Structure written by MMmdl.
 46 47  0     1  0  0  0  0  0999 V2000
   24.0733   12.4028   30.2323 C   0  0  0  0  0  0  0  0  0  0  0  0
   23.3271   11.0818   30.4341 C   0  0  0  0  0  0  0  0  0  0  0  0
   22.2086   11.3387   31.2785 O   0  0  0  0  0  0  0  0  0  0  0  0
   21.4076   10.2889   31.6938 C   0  0  0  0  0  0  0  0  0  0  0  0
   21.7457    9.0394   31.2730 N   0  0  0  0  0  0  0  0  0  0  0  0
   20.9690    8.0101   31.6444 C   0  0  0  0  0  0  0  0  0  0  0  0
   19.8628    8.1544   32.4699 C   0  0  0  0  0  0  0  0  0  0  0  0
   19.5194    9.4254   32.8937 C   0  0  0  0  0  0  0  0  0  0  0  0
   18.3843    9.5057   33.6914 N   0  0  0  0  0  0  0  0  0  0  0  0
   20.2911   10.5310   32.5018 C   0  0  3  0  0  0  0  0  0  0  0  0
   19.9686   11.9007   32.8839 C   0  0  0  0  0  0  0  0  0  0  0  0
   19.7198   12.9914   33.1811 N   0  0  0  0  0  0  0  0  0  0  0  0
   21.4264    6.8283   31.0989 N   0  0  0  0  0  0  0  0  0  0  0  0
   20.8492    5.6257   31.0244 C   0  0  0  0  0  0  0  0  0  0  0  0
   19.7218    5.3642   31.4396 O   0  0  0  0  0  0  0  0  0  0  0  0
   21.6453    4.5492   30.2959 C   0  0  0  0  0  0  0  0  0  0  0  0
   23.0487    4.3416   30.8592 C   0  0  0  0  0  0  0  0  0  0  0  0
   24.1093    5.1752   30.4706 C   0  0  0  0  0  0  0  0  0  0  0  0
   23.8251    6.2111   29.5994 O   0  0  0  0  0  0  0  0  0  0  0  0
   24.7824    7.2540   29.4258 C   0  0  0  0  0  0  0  0  0  0  0  0
   25.3879    4.9247   30.9874 C   0  0  0  0  0  0  0  0  0  0  0  0
   25.5914    3.9088   31.9220 C   0  0  0  0  0  0  0  0  0  0  0  0
   24.5221    3.1087   32.3472 C   0  0  0  0  0  0  0  0  0  0  0  0
   23.2656    3.3183   31.7864 C   0  0  0  0  0  0  0  0  0  0  0  0
   24.6165    2.1143   33.2977 O   0  0  0  0  0  0  0  0  0  0  0  0
   25.8225    1.9829   34.0425 C   0  0  0  0  0  0  0  0  0  0  0  0
   24.9451   12.2365   29.5824 H   0  0  0  0  0  0  0  0  0  0  0  0
   23.4007   13.1357   29.7629 H   0  0  0  0  0  0  0  0  0  0  0  0
   24.4104   12.7859   31.2068 H   0  0  0  0  0  0  0  0  0  0  0  0
   22.9825   10.6945   29.4639 H   0  0  0  0  0  0  0  0  0  0  0  0
   23.9922   10.3448   30.9078 H   0  0  0  0  0  0  0  0  0  0  0  0
   18.9968    7.7475   31.9272 H   0  0  0  0  0  0  0  0  0  0  0  0
   20.0480    7.5504   33.3704 H   0  0  0  0  0  0  0  0  0  0  0  0
   18.1785   10.4478   33.9563 H   0  0  0  0  0  0  0  0  0  0  0  0
   20.9133   10.4216   33.4023 H   0  0  0  0  0  0  0  0  0  0  0  0
   21.0960    3.5992   30.3716 H   0  0  0  0  0  0  0  0  0  0  0  0
   21.7342    4.8381   29.2382 H   0  0  0  0  0  0  0  0  0  0  0  0
   24.3975    7.9893   28.7038 H   0  0  0  0  0  0  0  0  0  0  0  0
   24.9644    7.7489   30.3912 H   0  0  0  0  0  0  0  0  0  0  0  0
   25.7240    6.8282   29.0487 H   0  0  0  0  0  0  0  0  0  0  0  0
   26.2241    5.5241   30.6589 H   0  0  0  0  0  0  0  0  0  0  0  0
   26.5804    3.7377   32.3208 H   0  0  0  0  0  0  0  0  0  0  0  0
   22.4436    2.6790   32.0727 H   0  0  0  0  0  0  0  0  0  0  0  0
   25.7273    1.1469   34.7510 H   0  0  0  0  0  0  0  0  0  0  0  0
   26.6585    1.7872   33.3549 H   0  0  0  0  0  0  0  0  0  0  0  0
   26.0140    2.9134   34.5971 H   0  0  0  0  0  0  0  0  0  0  0  0
  1  2  1  0  0  0  0
  2  3  1  0  0  0  0
  3  4  1  0  0  0  0
  4 10  1  0  0  0  0
  4  5  2  0  0  0  0
  5  6  1  0  0  0  0
  6  7  1  0  0  0  0
  6 13  2  0  0  0  0
  7  8  1  0  0  0  0
  8  9  2  0  0  0  0
  8 10  1  0  0  0  0
 10 11  1  0  0  0  0
 11 12  3  0  0  0  0
 13 14  1  0  0  0  0
 14 15  2  0  0  0  0
 14 16  1  0  0  0  0
 16 17  1  0  0  0  0
 17 24  2  0  0  0  0
 17 18  1  0  0  0  0
 18 19  1  0  0  0  0
 18 21  2  0  0  0  0
 19 20  1  0  0  0  0
 21 22  1  0  0  0  0
 22 23  2  0  0  0  0
 23 24  1  0  0  0  0
 23 25  1  0  0  0  0
 25 26  1  0  0  0  0
  1 27  1  0  0  0  0
  1 28  1  0  0  0  0
  1 29  1  0  0  0  0
  2 30  1  0  0  0  0
  2 31  1  0  0  0  0
  7 32  1  0  0  0  0
  7 33  1  0  0  0  0
  9 34  1  0  0  0  0
 10 35  1  0  0  0  0
 16 36  1  0  0  0  0
 16 37  1  0  0  0  0
 20 38  1  0  0  0  0
 20 39  1  0  0  0  0
 20 40  1  0  0  0  0
 21 41  1  0  0  0  0
 22 42  1  0  0  0  0
 24 43  1  0  0  0  0
 26 44  1  0  0  0  0
 26 45  1  0  0  0  0
 26 46  1  0  0  0  0
M  END
> <i_m_stars>
0

> <r_user_dG.exp>
-9.993231

$$$$
18634-1
  -OEChem-05192314073D
 Structure written by MMmdl.
 46 47  0     1  0  0  0  0  0999 V2000
   24.0733   12.4028   30.2323 C   0  0  0  0  0  0  0  0  0  0  0  0
   23.3271   11.0818   30.4341 C   0  0  0  0  0  0  0  0  0  0  0  0
   22.2086   11.3387   31.2785 O   0  0  0  0  0  0  0  0  0  0  0  0
   21.4076   10.2889   31.6938 C   0  0  0  0  0  0  0  0  0  0  0  0
   21.7457    9.0394   31.2730 N   0  0  0  0  0  0  0  0  0  0  0  0
   20.9690    8.0101   31.6444 C   0  0  0  0  0  0  0  0  0  0  0  0
   19.8628    8.1544   32.4699 C   0  0  0  0  0  0  0  0  0  0  0  0
   19.5194    9.4254   32.8937 C   0  0  0  0  0  0  0  0  0  0  0  0
   18.3843    9.5057   33.6914 N   0  0  0  0  0  0  0  0  0  0  0  0
   20.2911   10.5310   32.5018 C   0  0  3  0  0  0  0  0  0  0  0  0
   19.9686   11.9007   32.8839 C   0  0  0  0  0  0  0  0  0  0  0  0
   19.7198   12.9914   33.1811 N   0  0  0  0  0  0  0  0  0  0  0  0
   21.4264    6.8283   31.0989 N   0  0  0  0  0  0  0  0  0  0  0  0
   20.8492    5.6257   31.0244 C   0  0  0  0  0  0  0  0  0  0  0  0
   19.7218    5.3642   31.4396 O   0  0  0  0  0  0  0  0  0  0  0  0
   21.6453    4.5492   30.2959 C   0  0  0  0  0  0  0  0  0  0  0  0
   23.0487    4.3416   30.8592 C   0  0  0  0  0  0  0  0  0  0  0  0
   24.1093    5.1752   30.4706 C   0  0  0  0  0  0  0  0  0  0  0  0
   23.8251    6.2111   29.5994 O   0  0  0  0  0  0  0  0  0  0  0  0
   24.7824    7.2540   29.4258 C   0  0  0  0  0  0  0  0  0  0  0  0
   25.3879    4.9247   30.9874 C   0  0  0  0  0  0  0  0  0  0  0  0
   25.5914    3.9088   31.9220 C   0  0  0  0  0  0  0  0  0  0  0  0
   24.5221    3.1087   32.3472 C   0  0  0  0  0  0  0  0  0  0  0  0
   23.2656    3.3183   31.7864 C   0  0  0  0  0  0  0  0  0  0  0  0
   24.6165    2.1143   33.2977 O   0  0  0  0  0  0  0  0  0  0  0  0
   25.8225    1.9829   34.0425 C   0  0  0  0  0  0  0  0  0  0  0  0
   24.9451   12.2365   29.5824 H   0  0  0  0  0  0  0  0  0  0  0  0
   23.4007   13.1357   29.7629 H   0  0  0  0  0  0  0  0  0  0  0  0
   24.4104   12.7859   31.2068 H   0  0  0  0  0  0  0  0  0  0  0  0
   22.9825   10.6945   29.4639 H   0  0  0  0  0  0  0  0  0  0  0  0
   23.9922   10.3448   30.9078 H   0  0  0  0  0  0  0  0  0  0  0  0
   19.2840    7.2949   32.7741 H   0  0  0  0  0  0  0  0  0  0  0  0
   18.1785   10.4478   33.9563 H   0  0  0  0  0  0  0  0  0  0  0  0
   20.9133   10.4216   33.4023 H   0  0  0  0  0  0  0  0  0  0  0  0
   22.3389    6.8803   30.6930 H   0  0  0  0  0  0  0  0  0  0  0  0
   21.0960    3.5992   30.3716 H   0  0  0  0  0  0  0  0  0  0  0  0
   21.7342    4.8381   29.2382 H   0  0  0  0  0  0  0  0  0  0  0  0
   24.3975    7.9893   28.7038 H   0  0  0  0  0  0  0  0  0  0  0  0
   24.9644    7.7489   30.3912 H   0  0  0  0  0  0  0  0  0  0  0  0
   25.7240    6.8282   29.0487 H   0  0  0  0  0  0  0  0  0  0  0  0
   26.2241    5.5241   30.6589 H   0  0  0  0  0  0  0  0  0  0  0  0
   26.5804    3.7377   32.3208 H   0  0  0  0  0  0  0  0  0  0  0  0
   22.4436    2.6790   32.0727 H   0  0  0  0  0  0  0  0  0  0  0  0
   25.7273    1.1469   34.7510 H   0  0  0  0  0  0  0  0  0  0  0  0
   26.6585    1.7872   33.3549 H   0  0  0  0  0  0  0  0  0  0  0  0
   26.0140    2.9134   34.5971 H   0  0  0  0  0  0  0  0  0  0  0  0
  1  2  1  0  0  0  0
  2  3  1  0  0  0  0
  3  4  1  0  0  0  0
  4 10  1  0  0  0  0
  4  5  2  0  0  0  0
  5  6  1  0  0  0  0
  6  7  2  0  0  0  0
  6 13  1  0  0  0  0
  7  8  1  0  0  0  0
  8  9  2  0  0  0  0
  8 10  1  0  0  0  0
 10 11  1  0  0  0  0
 11 12  3  0  0  0  0
 13 14  1  0  0  0  0
 14 15  2  0  0  0  0
 14 16  1  0  0  0  0
 16 17  1  0  0  0  0
 17 24  2  0  0  0  0
 17 18  1  0  0  0  0
 18 19  1  0  0  0  0
 18 21  2  0  0  0  0
 19 20  1  0  0  0  0
 21 22  1  0  0  0  0
 22 23  2  0  0  0  0
 23 24  1  0  0  0  0
 23 25  1  0  0  0  0
 25 26  1  0  0  0  0
  1 27  1  0  0  0  0
  1 28  1  0  0  0  0
  1 29  1  0  0  0  0
  2 30  1  0  0  0  0
  2 31  1  0  0  0  0
  7 32  1  0  0  0  0
  9 33  1  0  0  0  0
 10 34  1  0  0  0  0
 13 35  1  0  0  0  0
 16 36  1  0  0  0  0
 16 37  1  0  0  0  0
 20 38  1  0  0  0  0
 20 39  1  0  0  0  0
 20 40  1  0  0  0  0
 21 41  1  0  0  0  0
 22 42  1  0  0  0  0
 24 43  1  0  0  0  0
 26 44  1  0  0  0  0
 26 45  1  0  0  0  0
 26 46  1  0  0  0  0
M  END
> <i_m_stars>
0

> <r_user_dG.exp>
-9.993231

$$$$
18634-1
  -OEChem-05192314073D
 Structure written by MMmdl.
 46 47  0     0  0  0  0  0  0999 V2000
   24.0733   12.4028   30.2323 C   0  0  0  0  0  0  0  0  0  0  0  0
   23.3271   11.0818   30.4341 C   0  0  0  0  0  0  0  0  0  0  0  0
   22.2086   11.3387   31.2785 O   0  0  0  0  0  0  0  0  0  0  0  0
   21.4076   10.2889   31.6938 C   0  0  0  0  0  0  0  0  0  0  0  0
   21.7457    9.0394   31.2730 N   0  0  0  0  0  0  0  0  0  0  0  0
   20.9690    8.0101   31.6444 C   0  0  0  0  0  0  0  0  0  0  0  0
   19.8628    8.1544   32.4699 C   0  0  0  0  0  0  0  0  0  0  0  0
   19.5194    9.4254   32.8937 C   0  0  0  0  0  0  0  0  0  0  0  0
   18.3843    9.5057   33.6914 N   0  0  0  0  0  0  0  0  0  0  0  0
   20.2911   10.5310   32.5018 C   0  0  0  0  0  0  0  0  0  0  0  0
   19.9686   11.9007   32.8839 C   0  0  0  0  0  0  0  0  0  0  0  0
   19.7198   12.9914   33.1811 N   0  0  0  0  0  0  0  0  0  0  0  0
   21.4264    6.8283   31.0989 N   0  0  0  0  0  0  0  0  0  0  0  0
   20.8492    5.6257   31.0244 C   0  0  0  0  0  0  0  0  0  0  0  0
   19.7218    5.3642   31.4396 O   0  0  0  0  0  0  0  0  0  0  0  0
   21.6453    4.5492   30.2959 C   0  0  0  0  0  0  0  0  0  0  0  0
   23.0487    4.3416   30.8592 C   0  0  0  0  0  0  0  0  0  0  0  0
   24.1093    5.1752   30.4706 C   0  0  0  0  0  0  0  0  0  0  0  0
   23.8251    6.2111   29.5994 O   0  0  0  0  0  0  0  0  0  0  0  0
   24.7824    7.2540   29.4258 C   0  0  0  0  0  0  0  0  0  0  0  0
   25.3879    4.9247   30.9874 C   0  0  0  0  0  0  0  0  0  0  0  0
   25.5914    3.9088   31.9220 C   0  0  0  0  0  0  0  0  0  0  0  0
   24.5221    3.1087   32.3472 C   0  0  0  0  0  0  0  0  0  0  0  0
   23.2656    3.3183   31.7864 C   0  0  0  0  0  0  0  0  0  0  0  0
   24.6165    2.1143   33.2977 O   0  0  0  0  0  0  0  0  0  0  0  0
   25.8225    1.9829   34.0425 C   0  0  0  0  0  0  0  0  0  0  0  0
   24.9451   12.2365   29.5824 H   0  0  0  0  0  0  0  0  0  0  0  0
   23.4007   13.1357   29.7629 H   0  0  0  0  0  0  0  0  0  0  0  0
   24.4104   12.7859   31.2068 H   0  0  0  0  0  0  0  0  0  0  0  0
   22.9825   10.6945   29.4639 H   0  0  0  0  0  0  0  0  0  0  0  0
   23.9922   10.3448   30.9078 H   0  0  0  0  0  0  0  0  0  0  0  0
   18.9968    7.7475   31.9272 H   0  0  0  0  0  0  0  0  0  0  0  0
   20.0480    7.5504   33.3704 H   0  0  0  0  0  0  0  0  0  0  0  0
   18.1785   10.4478   33.9563 H   0  0  0  0  0  0  0  0  0  0  0  0
   22.3389    6.8803   30.6930 H   0  0  0  0  0  0  0  0  0  0  0  0
   21.0960    3.5992   30.3716 H   0  0  0  0  0  0  0  0  0  0  0  0
   21.7342    4.8381   29.2382 H   0  0  0  0  0  0  0  0  0  0  0  0
   24.3975    7.9893   28.7038 H   0  0  0  0  0  0  0  0  0  0  0  0
   24.9644    7.7489   30.3912 H   0  0  0  0  0  0  0  0  0  0  0  0
   25.7240    6.8282   29.0487 H   0  0  0  0  0  0  0  0  0  0  0  0
   26.2241    5.5241   30.6589 H   0  0  0  0  0  0  0  0  0  0  0  0
   26.5804    3.7377   32.3208 H   0  0  0  0  0  0  0  0  0  0  0  0
   22.4436    2.6790   32.0727 H   0  0  0  0  0  0  0  0  0  0  0  0
   25.7273    1.1469   34.7510 H   0  0  0  0  0  0  0  0  0  0  0  0
   26.6585    1.7872   33.3549 H   0  0  0  0  0  0  0  0  0  0  0  0
   26.0140    2.9134   34.5971 H   0  0  0  0  0  0  0  0  0  0  0  0
  1  2  1  0  0  0  0
  2  3  1  0  0  0  0
  3  4  1  0  0  0  0
  4 10  2  0  0  0  0
  4  5  1  0  0  0  0
  5  6  2  0  0  0  0
  6  7  1  0  0  0  0
  6 13  1  0  0  0  0
  7  8  1  0  0  0  0
  8  9  2  0  0  0  0
  8 10  1  0  0  0  0
 10 11  1  0  0  0  0
 11 12  3  0  0  0  0
 13 14  1  0  0  0  0
 14 15  2  0  0  0  0
 14 16  1  0  0  0  0
 16 17  1  0  0  0  0
 17 24  2  0  0  0  0
 17 18  1  0  0  0  0
 18 19  1  0  0  0  0
 18 21  2  0  0  0  0
 19 20  1  0  0  0  0
 21 22  1  0  0  0  0
 22 23  2  0  0  0  0
 23 24  1  0  0  0  0
 23 25  1  0  0  0  0
 25 26  1  0  0  0  0
  1 27  1  0  0  0  0
  1 28  1  0  0  0  0
  1 29  1  0  0  0  0
  2 30  1  0  0  0  0
  2 31  1  0  0  0  0
  7 32  1  0  0  0  0
  7 33  1  0  0  0  0
  9 34  1  0  0  0  0
 13 35  1  0  0  0  0
 16 36  1  0  0  0  0
 16 37  1  0  0  0  0
 20 38  1  0  0  0  0
 20 39  1  0  0  0  0
 20 40  1  0  0  0  0
 21 41  1  0  0  0  0
 22 42  1  0  0  0  0
 24 43  1  0  0  0  0
 26 44  1  0  0  0  0
 26 45  1  0  0  0  0
 26 46  1  0  0  0  0
M  END
> <i_m_stars>
0

> <r_user_dG.exp>
-9.993231

$$$$
18634-1
  -OEChem-05192314073D
 Structure written by MMmdl.
 46 47  0     1  0  0  0  0  0999 V2000
   24.0733   12.4028   30.2323 C   0  0  0  0  0  0  0  0  0  0  0  0
   23.3271   11.0818   30.4341 C   0  0  0  0  0  0  0  0  0  0  0  0
   22.2086   11.3387   31.2785 O   0  0  0  0  0  0  0  0  0  0  0  0
   21.4076   10.2889   31.6938 C   0  0  0  0  0  0  0  0  0  0  0  0
   21.7457    9.0394   31.2730 N   0  0  0  0  0  0  0  0  0  0  0  0
   20.9690    8.0101   31.6444 C   0  0  0  0  0  0  0  0  0  0  0  0
   19.8628    8.1544   32.4699 C   0  0  0  0  0  0  0  0  0  0  0  0
   19.5194    9.4254   32.8937 C   0  0  0  0  0  0  0  0  0  0  0  0
   18.3843    9.5057   33.6914 N   0  0  0  0  0  0  0  0  0  0  0  0
   20.2911   10.5310   32.5018 C   0  0  3  0  0  0  0  0  0  0  0  0
   19.9686   11.9007   32.8839 C   0  0  0  0  0  0  0  0  0  0  0  0
   19.7198   12.9914   33.1811 N   0  0  0  0  0  0  0  0  0  0  0  0
   21.4264    6.8283   31.0989 N   0  0  0  0  0  0  0  0  0  0  0  0
   20.8492    5.6257   31.0244 C   0  0  0  0  0  0  0  0  0  0  0  0
   19.7218    5.3642   31.4396 O   0  0  0  0  0  0  0  0  0  0  0  0
   21.6453    4.5492   30.2959 C   0  0  0  0  0  0  0  0  0  0  0  0
   23.0487    4.3416   30.8592 C   0  0  0  0  0  0  0  0  0  0  0  0
   24.1093    5.1752   30.4706 C   0  0  0  0  0  0  0  0  0  0  0  0
   23.8251    6.2111   29.5994 O   0  0  0  0  0  0  0  0  0  0  0  0
   24.7824    7.2540   29.4258 C   0  0  0  0  0  0  0  0  0  0  0  0
   25.3879    4.9247   30.9874 C   0  0  0  0  0  0  0  0  0  0  0  0
   25.5914    3.9088   31.9220 C   0  0  0  0  0  0  0  0  0  0  0  0
   24.5221    3.1087   32.3472 C   0  0  0  0  0  0  0  0  0  0  0  0
   23.2656    3.3183   31.7864 C   0  0  0  0  0  0  0  0  0  0  0  0
   24.6165    2.1143   33.2977 O   0  0  0  0  0  0  0  0  0  0  0  0
   25.8225    1.9829   34.0425 C   0  0  0  0  0  0  0  0  0  0  0  0
   24.9451   12.2365   29.5824 H   0  0  0  0  0  0  0  0  0  0  0  0
   23.4007   13.1357   29.7629 H   0  0  0  0  0  0  0  0  0  0  0  0
   24.4104   12.7859   31.2068 H   0  0  0  0  0  0  0  0  0  0  0  0
   22.9825   10.6945   29.4639 H   0  0  0  0  0  0  0  0  0  0  0  0
   23.9922   10.3448   30.9078 H   0  0  0  0  0  0  0  0  0  0  0  0
   19.2840    7.2949   32.7741 H   0  0  0  0  0  0  0  0  0  0  0  0
   18.2208   10.4593   33.9442 H   0  0  0  0  0  0  0  0  0  0  0  0
   17.5961    9.1552   33.1856 H   0  0  0  0  0  0  0  0  0  0  0  0
   20.9133   10.4216   33.4023 H   0  0  0  0  0  0  0  0  0  0  0  0
   21.0960    3.5992   30.3716 H   0  0  0  0  0  0  0  0  0  0  0  0
   21.7342    4.8381   29.2382 H   0  0  0  0  0  0  0  0  0  0  0  0
   24.3975    7.9893   28.7038 H   0  0  0  0  0  0  0  0  0  0  0  0
   24.9644    7.7489   30.3912 H   0  0  0  0  0  0  0  0  0  0  0  0
   25.7240    6.8282   29.0487 H   0  0  0  0  0  0  0  0  0  0  0  0
   26.2241    5.5241   30.6589 H   0  0  0  0  0  0  0  0  0  0  0  0
   26.5804    3.7377   32.3208 H   0  0  0  0  0  0  0  0  0  0  0  0
   22.4436    2.6790   32.0727 H   0  0  0  0  0  0  0  0  0  0  0  0
   25.7273    1.1469   34.7510 H   0  0  0  0  0  0  0  0  0  0  0  0
   26.6585    1.7872   33.3549 H   0  0  0  0  0  0  0  0  0  0  0  0
   26.0140    2.9134   34.5971 H   0  0  0  0  0  0  0  0  0  0  0  0
  1  2  1  0  0  0  0
  2  3  1  0  0  0  0
  3  4  1  0  0  0  0
  4 10  1  0  0  0  0
  4  5  2  0  0  0  0
  5  6  1  0  0  0  0
  6  7  1  0  0  0  0
  6 13  2  0  0  0  0
  7  8  2  0  0  0  0
  8  9  1  0  0  0  0
  8 10  1  0  0  0  0
 10 11  1  0  0  0  0
 11 12  3  0  0  0  0
 13 14  1  0  0  0  0
 14 15  2  0  0  0  0
 14 16  1  0  0  0  0
 16 17  1  0  0  0  0
 17 24  2  0  0  0  0
 17 18  1  0  0  0  0
 18 19  1  0  0  0  0
 18 21  2  0  0  0  0
 19 20  1  0  0  0  0
 21 22  1  0  0  0  0
 22 23  2  0  0  0  0
 23 24  1  0  0  0  0
 23 25  1  0  0  0  0
 25 26  1  0  0  0  0
  1 27  1  0  0  0  0
  1 28  1  0  0  0  0
  1 29  1  0  0  0  0
  2 30  1  0  0  0  0
  2 31  1  0  0  0  0
  7 32  1  0  0  0  0
  9 33  1  0  0  0  0
  9 34  1  0  0  0  0
 10 35  1  0  0  0  0
 16 36  1  0  0  0  0
 16 37  1  0  0  0  0
 20 38  1  0  0  0  0
 20 39  1  0  0  0  0
 20 40  1  0  0  0  0
 21 41  1  0  0  0  0
 22 42  1  0  0  0  0
 24 43  1  0  0  0  0
 26 44  1  0  0  0  0
 26 45  1  0  0  0  0
 26 46  1  0  0  0  0
M  END
> <i_m_stars>
0

> <r_user_dG.exp>
-9.993231

$$$$
18634-1
  -OEChem-05192314073D
 Structure written by MMmdl.
 46 47  0     0  0  0  0  0  0999 V2000
   24.0733   12.4028   30.2323 C   0  0  0  0  0  0  0  0  0  0  0  0
   23.3271   11.0818   30.4341 C   0  0  0  0  0  0  0  0  0  0  0  0
   22.2086   11.3387   31.2785 O   0  0  0  0  0  0  0  0  0  0  0  0
   21.4076   10.2889   31.6938 C   0  0  0  0  0  0  0  0  0  0  0  0
   21.7457    9.0394   31.2730 N   0  0  0  0  0  0  0  0  0  0  0  0
   20.9690    8.0101   31.6444 C   0  0  0  0  0  0  0  0  0  0  0  0
   19.8628    8.1544   32.4699 C   0  0  0  0  0  0  0  0  0  0  0  0
   19.5194    9.4254   32.8937 C   0  0  0  0  0  0  0  0  0  0  0  0
   18.3843    9.5057   33.6914 N   0  0  0  0  0  0  0  0  0  0  0  0
   20.2911   10.5310   32.5018 C   0  0  0  0  0  0  0  0  0  0  0  0
   19.9686   11.9007   32.8839 C   0  0  0  0  0  0  0  0  0  0  0  0
   19.7198   12.9914   33.1811 N   0  0  0  0  0  0  0  0  0  0  0  0
   21.4264    6.8283   31.0989 N   0  0  0  0  0  0  0  0  0  0  0  0
   20.8492    5.6257   31.0244 C   0  0  0  0  0  0  0  0  0  0  0  0
   19.7218    5.3642   31.4396 O   0  0  0  0  0  0  0  0  0  0  0  0
   21.6453    4.5492   30.2959 C   0  0  0  0  0  0  0  0  0  0  0  0
   23.0487    4.3416   30.8592 C   0  0  0  0  0  0  0  0  0  0  0  0
   24.1093    5.1752   30.4706 C   0  0  0  0  0  0  0  0  0  0  0  0
   23.8251    6.2111   29.5994 O   0  0  0  0  0  0  0  0  0  0  0  0
   24.7824    7.2540   29.4258 C   0  0  0  0  0  0  0  0  0  0  0  0
   25.3879    4.9247   30.9874 C   0  0  0  0  0  0  0  0  0  0  0  0
   25.5914    3.9088   31.9220 C   0  0  0  0  0  0  0  0  0  0  0  0
   24.5221    3.1087   32.3472 C   0  0  0  0  0  0  0  0  0  0  0  0
   23.2656    3.3183   31.7864 C   0  0  0  0  0  0  0  0  0  0  0  0
   24.6165    2.1143   33.2977 O   0  0  0  0  0  0  0  0  0  0  0  0
   25.8225    1.9829   34.0425 C   0  0  0  0  0  0  0  0  0  0  0  0
   24.9451   12.2365   29.5824 H   0  0  0  0  0  0  0  0  0  0  0  0
   23.4007   13.1357   29.7629 H   0  0  0  0  0  0  0  0  0  0  0  0
   24.4104   12.7859   31.2068 H   0  0  0  0  0  0  0  0  0  0  0  0
   22.9825   10.6945   29.4639 H   0  0  0  0  0  0  0  0  0  0  0  0
   23.9922   10.3448   30.9078 H   0  0  0  0  0  0  0  0  0  0  0  0
   18.9968    7.7475   31.9272 H   0  0  0  0  0  0  0  0  0  0  0  0
   20.0480    7.5504   33.3704 H   0  0  0  0  0  0  0  0  0  0  0  0
   18.2208   10.4593   33.9442 H   0  0  0  0  0  0  0  0  0  0  0  0
   17.5961    9.1552   33.1856 H   0  0  0  0  0  0  0  0  0  0  0  0
   21.0960    3.5992   30.3716 H   0  0  0  0  0  0  0  0  0  0  0  0
   21.7342    4.8381   29.2382 H   0  0  0  0  0  0  0  0  0  0  0  0
   24.3975    7.9893   28.7038 H   0  0  0  0  0  0  0  0  0  0  0  0
   24.9644    7.7489   30.3912 H   0  0  0  0  0  0  0  0  0  0  0  0
   25.7240    6.8282   29.0487 H   0  0  0  0  0  0  0  0  0  0  0  0
   26.2241    5.5241   30.6589 H   0  0  0  0  0  0  0  0  0  0  0  0
   26.5804    3.7377   32.3208 H   0  0  0  0  0  0  0  0  0  0  0  0
   22.4436    2.6790   32.0727 H   0  0  0  0  0  0  0  0  0  0  0  0
   25.7273    1.1469   34.7510 H   0  0  0  0  0  0  0  0  0  0  0  0
   26.6585    1.7872   33.3549 H   0  0  0  0  0  0  0  0  0  0  0  0
   26.0140    2.9134   34.5971 H   0  0  0  0  0  0  0  0  0  0  0  0
  1  2  1  0  0  0  0
  2  3  1  0  0  0  0
  3  4  1  0  0  0  0
  4 10  1  0  0  0  0
  4  5  2  0  0  0  0
  5  6  1  0  0  0  0
  6  7  1  0  0  0  0
  6 13  2  0  0  0  0
  7  8  1  0  0  0  0
  8  9  1  0  0  0  0
  8 10  2  0  0  0  0
 10 11  1  0  0  0  0
 11 12  3  0  0  0  0
 13 14  1  0  0  0  0
 14 15  2  0  0  0  0
 14 16  1  0  0  0  0
 16 17  1  0  0  0  0
 17 24  2  0  0  0  0
 17 18  1  0  0  0  0
 18 19  1  0  0  0  0
 18 21  2  0  0  0  0
 19 20  1  0  0  0  0
 21 22  1  0  0  0  0
 22 23  2  0  0  0  0
 23 24  1  0  0  0  0
 23 25  1  0  0  0  0
 25 26  1  0  0  0  0
  1 27  1  0  0  0  0
  1 28  1  0  0  0  0
  1 29  1  0  0  0  0
  2 30  1  0  0  0  0
  2 31  1  0  0  0  0
  7 32  1  0  0  0  0
  7 33  1  0  0  0  0
  9 34  1  0  0  0  0
  9 35  1  0  0  0  0
 16 36  1  0  0  0  0
 16 37  1  0  0  0  0
 20 38  1  0  0  0  0
 20 39  1  0  0  0  0
 20 40  1  0  0  0  0
 21 41  1  0  0  0  0
 22 42  1  0  0  0  0
 24 43  1  0  0  0  0
 26 44  1  0  0  0  0
 26 45  1  0  0  0  0
 26 46  1  0  0  0  0
M  END
> <i_m_stars>
0

> <r_user_dG.exp>
-9.993231

$$$$
18634-1
  -OEChem-05192314073D
 Structure written by MMmdl.
 46 47  0     0  0  0  0  0  0999 V2000
   24.0733   12.4028   30.2323 C   0  0  0  0  0  0  0  0  0  0  0  0
   23.3271   11.0818   30.4341 C   0  0  0  0  0  0  0  0  0  0  0  0
   22.2086   11.3387   31.2785 O   0  0  0  0  0  0  0  0  0  0  0  0
   21.4076   10.2889   31.6938 C   0  0  0  0  0  0  0  0  0  0  0  0
   21.7457    9.0394   31.2730 N   0  0  0  0  0  0  0  0  0  0  0  0
   20.9690    8.0101   31.6444 C   0  0  0  0  0  0  0  0  0  0  0  0
   19.8628    8.1544   32.4699 C   0  0  0  0  0  0  0  0  0  0  0  0
   19.5194    9.4254   32.8937 C   0  0  0  0  0  0  0  0  0  0  0  0
   18.3843    9.5057   33.6914 N   0  0  0  0  0  0  0  0  0  0  0  0
   20.2911   10.5310   32.5018 C   0  0  0  0  0  0  0  0  0  0  0  0
   19.9686   11.9007   32.8839 C   0  0  0  0  0  0  0  0  0  0  0  0
   19.7198   12.9914   33.1811 N   0  0  0  0  0  0  0  0  0  0  0  0
   21.4264    6.8283   31.0989 N   0  0  0  0  0  0  0  0  0  0  0  0
   20.8492    5.6257   31.0244 C   0  0  0  0  0  0  0  0  0  0  0  0
   19.7218    5.3642   31.4396 O   0  0  0  0  0  0  0  0  0  0  0  0
   21.6453    4.5492   30.2959 C   0  0  0  0  0  0  0  0  0  0  0  0
   23.0487    4.3416   30.8592 C   0  0  0  0  0  0  0  0  0  0  0  0
   24.1093    5.1752   30.4706 C   0  0  0  0  0  0  0  0  0  0  0  0
   23.8251    6.2111   29.5994 O   0  0  0  0  0  0  0  0  0  0  0  0
   24.7824    7.2540   29.4258 C   0  0  0  0  0  0  0  0  0  0  0  0
   25.3879    4.9247   30.9874 C   0  0  0  0  0  0  0  0  0  0  0  0
   25.5914    3.9088   31.9220 C   0  0  0  0  0  0  0  0  0  0  0  0
   24.5221    3.1087   32.3472 C   0  0  0  0  0  0  0  0  0  0  0  0
   23.2656    3.3183   31.7864 C   0  0  0  0  0  0  0  0  0  0  0  0
   24.6165    2.1143   33.2977 O   0  0  0  0  0  0  0  0  0  0  0  0
   25.8225    1.9829   34.0425 C   0  0  0  0  0  0  0  0  0  0  0  0
   24.9451   12.2365   29.5824 H   0  0  0  0  0  0  0  0  0  0  0  0
   23.4007   13.1357   29.7629 H   0  0  0  0  0  0  0  0  0  0  0  0
   24.4104   12.7859   31.2068 H   0  0  0  0  0  0  0  0  0  0  0  0
   22.9825   10.6945   29.4639 H   0  0  0  0  0  0  0  0  0  0  0  0
   23.9922   10.3448   30.9078 H   0  0  0  0  0  0  0  0  0  0  0  0
   22.5528    8.8921   30.7013 H   0  0  0  0  0  0  0  0  0  0  0  0
   18.9968    7.7475   31.9272 H   0  0  0  0  0  0  0  0  0  0  0  0
   20.0480    7.5504   33.3704 H   0  0  0  0  0  0  0  0  0  0  0  0
   18.1785   10.4478   33.9563 H   0  0  0  0  0  0  0  0  0  0  0  0
   21.0960    3.5992   30.3716 H   0  0  0  0  0  0  0  0  0  0  0  0
   21.7342    4.8381   29.2382 H   0  0  0  0  0  0  0  0  0  0  0  0
   24.3975    7.9893   28.7038 H   0  0  0  0  0  0  0  0  0  0  0  0
   24.9644    7.7489   30.3912 H   0  0  0  0  0  0  0  0  0  0  0  0
   25.7240    6.8282   29.0487 H   0  0  0  0  0  0  0  0  0  0  0  0
   26.2241    5.5241   30.6589 H   0  0  0  0  0  0  0  0  0  0  0  0
   26.5804    3.7377   32.3208 H   0  0  0  0  0  0  0  0  0  0  0  0
   22.4436    2.6790   32.0727 H   0  0  0  0  0  0  0  0  0  0  0  0
   25.7273    1.1469   34.7510 H   0  0  0  0  0  0  0  0  0  0  0  0
   26.6585    1.7872   33.3549 H   0  0  0  0  0  0  0  0  0  0  0  0
   26.0140    2.9134   34.5971 H   0  0  0  0  0  0  0  0  0  0  0  0
  1  2  1  0  0  0  0
  2  3  1  0  0  0  0
  3  4  1  0  0  0  0
  4 10  2  0  0  0  0
  4  5  1  0  0  0  0
  5  6  1  0  0  0  0
  6  7  1  0  0  0  0
  6 13  2  0  0  0  0
  7  8  1  0  0  0  0
  8  9  2  0  0  0  0
  8 10  1  0  0  0  0
 10 11  1  0  0  0  0
 11 12  3  0  0  0  0
 13 14  1  0  0  0  0
 14 15  2  0  0  0  0
 14 16  1  0  0  0  0
 16 17  1  0  0  0  0
 17 24  2  0  0  0  0
 17 18  1  0  0  0  0
 18 19  1  0  0  0  0
 18 21  2  0  0  0  0
 19 20  1  0  0  0  0
 21 22  1  0  0  0  0
 22 23  2  0  0  0  0
 23 24  1  0  0  0  0
 23 25  1  0  0  0  0
 25 26  1  0  0  0  0
  1 27  1  0  0  0  0
  1 28  1  0  0  0  0
  1 29  1  0  0  0  0
  2 30  1  0  0  0  0
  2 31  1  0  0  0  0
  5 32  1  0  0  0  0
  7 33  1  0  0  0  0
  7 34  1  0  0  0  0
  9 35  1  0  0  0  0
 16 36  1  0  0  0  0
 16 37  1  0  0  0  0
 20 38  1  0  0  0  0
 20 39  1  0  0  0  0
 20 40  1  0  0  0  0
 21 41  1  0  0  0  0
 22 42  1  0  0  0  0
 24 43  1  0  0  0  0
 26 44  1  0  0  0  0
 26 45  1  0  0  0  0
 26 46  1  0  0  0  0
M  END
> <i_m_stars>
0

> <r_user_dG.exp>
-9.993231

$$$$
18634-1
  -OEChem-05192314073D
 Structure written by MMmdl.
 46 47  0     1  0  0  0  0  0999 V2000
   24.0733   12.4028   30.2323 C   0  0  0  0  0  0  0  0  0  0  0  0
   23.3271   11.0818   30.4341 C   0  0  0  0  0  0  0  0  0  0  0  0
   22.2086   11.3387   31.2785 O   0  0  0  0  0  0  0  0  0  0  0  0
   21.4076   10.2889   31.6938 C   0  0  0  0  0  0  0  0  0  0  0  0
   21.7457    9.0394   31.2730 N   0  0  0  0  0  0  0  0  0  0  0  0
   20.9690    8.0101   31.6444 C   0  0  0  0  0  0  0  0  0  0  0  0
   19.8628    8.1544   32.4699 C   0  0  0  0  0  0  0  0  0  0  0  0
   19.5194    9.4254   32.8937 C   0  0  0  0  0  0  0  0  0  0  0  0
   18.3843    9.5057   33.6914 N   0  0  0  0  0  0  0  0  0  0  0  0
   20.2911   10.5310   32.5018 C   0  0  3  0  0  0  0  0  0  0  0  0
   19.9686   11.9007   32.8839 C   0  0  0  0  0  0  0  0  0  0  0  0
   19.7198   12.9914   33.1811 N   0  0  0  0  0  0  0  0  0  0  0  0
   21.4264    6.8283   31.0989 N   0  0  0  0  0  0  0  0  0  0  0  0
   20.8492    5.6257   31.0244 C   0  0  0  0  0  0  0  0  0  0  0  0
   19.7218    5.3642   31.4396 O   0  0  0  0  0  0  0  0  0  0  0  0
   21.6453    4.5492   30.2959 C   0  0  0  0  0  0  0  0  0  0  0  0
   23.0487    4.3416   30.8592 C   0  0  0  0  0  0  0  0  0  0  0  0
   24.1093    5.1752   30.4706 C   0  0  0  0  0  0  0  0  0  0  0  0
   23.8251    6.2111   29.5994 O   0  0  0  0  0  0  0  0  0  0  0  0
   24.7824    7.2540   29.4258 C   0  0  0  0  0  0  0  0  0  0  0  0
   25.3879    4.9247   30.9874 C   0  0  0  0  0  0  0  0  0  0  0  0
   25.5914    3.9088   31.9220 C   0  0  0  0  0  0  0  0  0  0  0  0
   24.5221    3.1087   32.3472 C   0  0  0  0  0  0  0  0  0  0  0  0
   23.2656    3.3183   31.7864 C   0  0  0  0  0  0  0  0  0  0  0  0
   24.6165    2.1143   33.2977 O   0  0  0  0  0  0  0  0  0  0  0  0
   25.8225    1.9829   34.0425 C   0  0  0  0  0  0  0  0  0  0  0  0
   24.9451   12.2365   29.5824 H   0  0  0  0  0  0  0  0  0  0  0  0
   23.4007   13.1357   29.7629 H   0  0  0  0  0  0  0  0  0  0  0  0
   24.4104   12.7859   31.2068 H   0  0  0  0  0  0  0  0  0  0  0  0
   22.9825   10.6945   29.4639 H   0  0  0  0  0  0  0  0  0  0  0  0
   23.9922   10.3448   30.9078 H   0  0  0  0  0  0  0  0  0  0  0  0
   19.2840    7.2949   32.7741 H   0  0  0  0  0  0  0  0  0  0  0  0
   18.1785   10.4478   33.9563 H   0  0  0  0  0  0  0  0  0  0  0  0
   20.9133   10.4216   33.4023 H   0  0  0  0  0  0  0  0  0  0  0  0
   19.5284    4.4484   31.2769 H   0  0  0  0  0  0  0  0  0  0  0  0
   21.0960    3.5992   30.3716 H   0  0  0  0  0  0  0  0  0  0  0  0
   21.7342    4.8381   29.2382 H   0  0  0  0  0  0  0  0  0  0  0  0
   24.3975    7.9893   28.7038 H   0  0  0  0  0  0  0  0  0  0  0  0
   24.9644    7.7489   30.3912 H   0  0  0  0  0  0  0  0  0  0  0  0
   25.7240    6.8282   29.0487 H   0  0  0  0  0  0  0  0  0  0  0  0
   26.2241    5.5241   30.6589 H   0  0  0  0  0  0  0  0  0  0  0  0
   26.5804    3.7377   32.3208 H   0  0  0  0  0  0  0  0  0  0  0  0
   22.4436    2.6790   32.0727 H   0  0  0  0  0  0  0  0  0  0  0  0
   25.7273    1.1469   34.7510 H   0  0  0  0  0  0  0  0  0  0  0  0
   26.6585    1.7872   33.3549 H   0  0  0  0  0  0  0  0  0  0  0  0
   26.0140    2.9134   34.5971 H   0  0  0  0  0  0  0  0  0  0  0  0
  1  2  1  0  0  0  0
  2  3  1  0  0  0  0
  3  4  1  0  0  0  0
  4 10  1  0  0  0  0
  4  5  2  0  0  0  0
  5  6  1  0  0  0  0
  6  7  2  0  0  0  0
  6 13  1  0  0  0  0
  7  8  1  0  0  0  0
  8  9  2  0  0  0  0
  8 10  1  0  0  0  0
 10 11  1  0  0  0  0
 11 12  3  0  0  0  0
 13 14  2  0  0  0  0
 14 15  1  0  0  0  0
 14 16  1  0  0  0  0
 16 17  1  0  0  0  0
 17 24  2  0  0  0  0
 17 18  1  0  0  0  0
 18 19  1  0  0  0  0
 18 21  2  0  0  0  0
 19 20  1  0  0  0  0
 21 22  1  0  0  0  0
 22 23  2  0  0  0  0
 23 24  1  0  0  0  0
 23 25  1  0  0  0  0
 25 26  1  0  0  0  0
  1 27  1  0  0  0  0
  1 28  1  0  0  0  0
  1 29  1  0  0  0  0
  2 30  1  0  0  0  0
  2 31  1  0  0  0  0
  7 32  1  0  0  0  0
  9 33  1  0  0  0  0
 10 34  1  0  0  0  0
 15 35  1  0  0  0  0
 16 36  1  0  0  0  0
 16 37  1  0  0  0  0
 20 38  1  0  0  0  0
 20 39  1  0  0  0  0
 20 40  1  0  0  0  0
 21 41  1  0  0  0  0
 22 42  1  0  0  0  0
 24 43  1  0  0  0  0
 26 44  1  0  0  0  0
 26 45  1  0  0  0  0
 26 46  1  0  0  0  0
M  END
> <i_m_stars>
0

> <r_user_dG.exp>
-9.993231

$$$$
18634-1
  -OEChem-05192314073D
 Structure written by MMmdl.
 46 47  0     0  0  0  0  0  0999 V2000
   24.0733   12.4028   30.2323 C   0  0  0  0  0  0  0  0  0  0  0  0
   23.3271   11.0818   30.4341 C   0  0  0  0  0  0  0  0  0  0  0  0
   22.2086   11.3387   31.2785 O   0  0  0  0  0  0  0  0  0  0  0  0
   21.4076   10.2889   31.6938 C   0  0  0  0  0  0  0  0  0  0  0  0
   21.7457    9.0394   31.2730 N   0  0  0  0  0  0  0  0  0  0  0  0
   20.9690    8.0101   31.6444 C   0  0  0  0  0  0  0  0  0  0  0  0
   19.8628    8.1544   32.4699 C   0  0  0  0  0  0  0  0  0  0  0  0
   19.5194    9.4254   32.8937 C   0  0  0  0  0  0  0  0  0  0  0  0
   18.3843    9.5057   33.6914 N   0  0  0  0  0  0  0  0  0  0  0  0
   20.2911   10.5310   32.5018 C   0  0  0  0  0  0  0  0  0  0  0  0
   19.9686   11.9007   32.8839 C   0  0  0  0  0  0  0  0  0  0  0  0
   19.7198   12.9914   33.1811 N   0  0  0  0  0  0  0  0  0  0  0  0
   21.4264    6.8283   31.0989 N   0  0  0  0  0  0  0  0  0  0  0  0
   20.8492    5.6257   31.0244 C   0  0  0  0  0  0  0  0  0  0  0  0
   19.7218    5.3642   31.4396 O   0  0  0  0  0  0  0  0  0  0  0  0
   21.6453    4.5492   30.2959 C   0  0  0  0  0  0  0  0  0  0  0  0
   23.0487    4.3416   30.8592 C   0  0  0  0  0  0  0  0  0  0  0  0
   24.1093    5.1752   30.4706 C   0  0  0  0  0  0  0  0  0  0  0  0
   23.8251    6.2111   29.5994 O   0  0  0  0  0  0  0  0  0  0  0  0
   24.7824    7.2540   29.4258 C   0  0  0  0  0  0  0  0  0  0  0  0
   25.3879    4.9247   30.9874 C   0  0  0  0  0  0  0  0  0  0  0  0
   25.5914    3.9088   31.9220 C   0  0  0  0  0  0  0  0  0  0  0  0
   24.5221    3.1087   32.3472 C   0  0  0  0  0  0  0  0  0  0  0  0
   23.2656    3.3183   31.7864 C   0  0  0  0  0  0  0  0  0  0  0  0
   24.6165    2.1143   33.2977 O   0  0  0  0  0  0  0  0  0  0  0  0
   25.8225    1.9829   34.0425 C   0  0  0  0  0  0  0  0  0  0  0  0
   24.9451   12.2365   29.5824 H   0  0  0  0  0  0  0  0  0  0  0  0
   23.4007   13.1357   29.7629 H   0  0  0  0  0  0  0  0  0  0  0  0
   24.4104   12.7859   31.2068 H   0  0  0  0  0  0  0  0  0  0  0  0
   22.9825   10.6945   29.4639 H   0  0  0  0  0  0  0  0  0  0  0  0
   23.9922   10.3448   30.9078 H   0  0  0  0  0  0  0  0  0  0  0  0
   18.9968    7.7475   31.9272 H   0  0  0  0  0  0  0  0  0  0  0  0
   20.0480    7.5504   33.3704 H   0  0  0  0  0  0  0  0  0  0  0  0
   18.1785   10.4478   33.9563 H   0  0  0  0  0  0  0  0  0  0  0  0
   19.5284    4.4484   31.2769 H   0  0  0  0  0  0  0  0  0  0  0  0
   21.0960    3.5992   30.3716 H   0  0  0  0  0  0  0  0  0  0  0  0
   21.7342    4.8381   29.2382 H   0  0  0  0  0  0  0  0  0  0  0  0
   24.3975    7.9893   28.7038 H   0  0  0  0  0  0  0  0  0  0  0  0
   24.9644    7.7489   30.3912 H   0  0  0  0  0  0  0  0  0  0  0  0
   25.7240    6.8282   29.0487 H   0  0  0  0  0  0  0  0  0  0  0  0
   26.2241    5.5241   30.6589 H   0  0  0  0  0  0  0  0  0  0  0  0
   26.5804    3.7377   32.3208 H   0  0  0  0  0  0  0  0  0  0  0  0
   22.4436    2.6790   32.0727 H   0  0  0  0  0  0  0  0  0  0  0  0
   25.7273    1.1469   34.7510 H   0  0  0  0  0  0  0  0  0  0  0  0
   26.6585    1.7872   33.3549 H   0  0  0  0  0  0  0  0  0  0  0  0
   26.0140    2.9134   34.5971 H   0  0  0  0  0  0  0  0  0  0  0  0
  1  2  1  0  0  0  0
  2  3  1  0  0  0  0
  3  4  1  0  0  0  0
  4 10  2  0  0  0  0
  4  5  1  0  0  0  0
  5  6  2  0  0  0  0
  6  7  1  0  0  0  0
  6 13  1  0  0  0  0
  7  8  1  0  0  0  0
  8  9  2  0  0  0  0
  8 10  1  0  0  0  0
 10 11  1  0  0  0  0
 11 12  3  0  0  0  0
 13 14  2  0  0  0  0
 14 15  1  0  0  0  0
 14 16  1  0  0  0  0
 16 17  1  0  0  0  0
 17 24  2  0  0  0  0
 17 18  1  0  0  0  0
 18 19  1  0  0  0  0
 18 21  2  0  0  0  0
 19 20  1  0  0  0  0
 21 22  1  0  0  0  0
 22 23  2  0  0  0  0
 23 24  1  0  0  0  0
 23 25  1  0  0  0  0
 25 26  1  0  0  0  0
  1 27  1  0  0  0  0
  1 28  1  0  0  0  0
  1 29  1  0  0  0  0
  2 30  1  0  0  0  0
  2 31  1  0  0  0  0
  7 32  1  0  0  0  0
  7 33  1  0  0  0  0
  9 34  1  0  0  0  0
 15 35  1  0  0  0  0
 16 36  1  0  0  0  0
 16 37  1  0  0  0  0
 20 38  1  0  0  0  0
 20 39  1  0  0  0  0
 20 40  1  0  0  0  0
 21 41  1  0  0  0  0
 22 42  1  0  0  0  0
 24 43  1  0  0  0  0
 26 44  1  0  0  0  0
 26 45  1  0  0  0  0
 26 46  1  0  0  0  0
M  END
> <i_m_stars>
0

> <r_user_dG.exp>
-9.993231

$$$$
