18629-1
  -OEChem-05192314073D
 Structure written by MMmdl.
 41 42  0     0  0  0  0  0  0999 V2000
   24.0510   12.2016   30.2637 C   0  0  0  0  0  0  0  0  0  0  0  0
   23.3159   10.8864   30.5326 C   0  0  0  0  0  0  0  0  0  0  0  0
   22.1655   11.1828   31.3207 O   0  0  0  0  0  0  0  0  0  0  0  0
   21.3477   10.1523   31.7514 C   0  0  0  0  0  0  0  0  0  0  0  0
   21.6919    8.8874   31.3853 N   0  0  0  0  0  0  0  0  0  0  0  0
   20.8972    7.8767   31.7648 C   0  0  0  0  0  0  0  0  0  0  0  0
   19.7610    8.0525   32.5388 C   0  0  0  0  0  0  0  0  0  0  0  0
   19.4157    9.3373   32.9151 C   0  0  0  0  0  0  0  0  0  0  0  0
   18.2588    9.4438   33.6763 N   0  0  0  0  0  0  0  0  0  0  0  0
   20.2113   10.4260   32.5218 C   0  0  0  0  0  0  0  0  0  0  0  0
   19.8989   11.8070   32.8723 C   0  0  0  0  0  0  0  0  0  0  0  0
   19.6587   12.9061   33.1464 N   0  0  0  0  0  0  0  0  0  0  0  0
   21.3873    6.6638   31.3301 N   0  0  0  0  0  0  0  0  0  0  0  0
   20.7487    5.5080   31.1215 C   0  0  0  0  0  0  0  0  0  0  0  0
   19.5319    5.3796   31.2433 O   0  0  0  0  0  0  0  0  0  0  0  0
   21.5762    4.2864   30.6944 C   0  0  0  0  0  0  0  0  0  0  0  0
   23.0915    4.4911   30.6827 C   0  0  0  0  0  0  0  0  0  0  0  0
   23.6888    5.3698   29.7694 C   0  0  0  0  0  0  0  0  0  0  0  0
   25.0671    5.5919   29.8016 C   0  0  0  0  0  0  0  0  0  0  0  0
   25.7101    6.5802   28.8490 C   0  0  0  0  0  0  0  0  0  0  0  0
   25.8566    4.9019   30.7231 C   0  0  0  0  0  0  0  0  0  0  0  0
   25.2705    4.0092   31.6200 C   0  0  0  0  0  0  0  0  0  0  0  0
   23.8912    3.8073   31.6026 C   0  0  0  0  0  0  0  0  0  0  0  0
   24.9462   12.0042   29.6556 H   0  0  0  0  0  0  0  0  0  0  0  0
   23.3849   12.8898   29.7228 H   0  0  0  0  0  0  0  0  0  0  0  0
   24.3501   12.6564   31.2196 H   0  0  0  0  0  0  0  0  0  0  0  0
   23.0094   10.4278   29.5809 H   0  0  0  0  0  0  0  0  0  0  0  0
   23.9746   10.1943   31.0777 H   0  0  0  0  0  0  0  0  0  0  0  0
   19.1604    7.2071   32.8404 H   0  0  0  0  0  0  0  0  0  0  0  0
   18.0925   10.4046   33.8982 H   0  0  0  0  0  0  0  0  0  0  0  0
   17.4840    9.0828   33.1573 H   0  0  0  0  0  0  0  0  0  0  0  0
   22.3694    6.6458   31.1423 H   0  0  0  0  0  0  0  0  0  0  0  0
   21.3504    3.4640   31.3892 H   0  0  0  0  0  0  0  0  0  0  0  0
   21.2642    4.0039   29.6781 H   0  0  0  0  0  0  0  0  0  0  0  0
   23.0799    5.8782   29.0365 H   0  0  0  0  0  0  0  0  0  0  0  0
   25.7251    7.5786   29.3106 H   0  0  0  0  0  0  0  0  0  0  0  0
   26.7402    6.2618   28.6307 H   0  0  0  0  0  0  0  0  0  0  0  0
   25.1319    6.6173   27.9140 H   0  0  0  0  0  0  0  0  0  0  0  0
   26.9248    5.0599   30.7415 H   0  0  0  0  0  0  0  0  0  0  0  0
   25.8854    3.4740   32.3284 H   0  0  0  0  0  0  0  0  0  0  0  0
   23.4391    3.1201   32.3024 H   0  0  0  0  0  0  0  0  0  0  0  0
  1  2  1  0  0  0  0
  2  3  1  0  0  0  0
  3  4  1  0  0  0  0
  4 10  2  0  0  0  0
  4  5  1  0  0  0  0
  5  6  2  0  0  0  0
  6  7  1  0  0  0  0
  6 13  1  0  0  0  0
  7  8  2  0  0  0  0
  8  9  1  0  0  0  0
  8 10  1  0  0  0  0
 10 11  1  0  0  0  0
 11 12  3  0  0  0  0
 13 14  1  0  0  0  0
 14 15  2  0  0  0  0
 14 16  1  0  0  0  0
 16 17  1  0  0  0  0
 17 23  2  0  0  0  0
 17 18  1  0  0  0  0
 18 19  2  0  0  0  0
 19 20  1  0  0  0  0
 19 21  1  0  0  0  0
 21 22  2  0  0  0  0
 22 23  1  0  0  0  0
  1 24  1  0  0  0  0
  1 25  1  0  0  0  0
  1 26  1  0  0  0  0
  2 27  1  0  0  0  0
  2 28  1  0  0  0  0
  7 29  1  0  0  0  0
  9 30  1  0  0  0  0
  9 31  1  0  0  0  0
 13 32  1  0  0  0  0
 16 33  1  0  0  0  0
 16 34  1  0  0  0  0
 18 35  1  0  0  0  0
 20 36  1  0  0  0  0
 20 37  1  0  0  0  0
 20 38  1  0  0  0  0
 21 39  1  0  0  0  0
 22 40  1  0  0  0  0
 23 41  1  0  0  0  0
M  END
> <i_m_stars>
0

> <r_user_dG.exp>
-8.67377

$$$$
18629-1
  -OEChem-05192314073D
 Structure written by MMmdl.
 41 42  0     0  0  0  0  0  0999 V2000
   24.0510   12.2016   30.2637 C   0  0  0  0  0  0  0  0  0  0  0  0
   23.3159   10.8864   30.5326 C   0  0  0  0  0  0  0  0  0  0  0  0
   22.1655   11.1828   31.3207 O   0  0  0  0  0  0  0  0  0  0  0  0
   21.3477   10.1523   31.7514 C   0  0  0  0  0  0  0  0  0  0  0  0
   21.6919    8.8874   31.3853 N   0  0  0  0  0  0  0  0  0  0  0  0
   20.8972    7.8767   31.7648 C   0  0  0  0  0  0  0  0  0  0  0  0
   19.7610    8.0525   32.5388 C   0  0  0  0  0  0  0  0  0  0  0  0
   19.4157    9.3373   32.9151 C   0  0  0  0  0  0  0  0  0  0  0  0
   18.2588    9.4438   33.6763 N   0  0  0  0  0  0  0  0  0  0  0  0
   20.2113   10.4260   32.5218 C   0  0  0  0  0  0  0  0  0  0  0  0
   19.8989   11.8070   32.8723 C   0  0  0  0  0  0  0  0  0  0  0  0
   19.6587   12.9061   33.1464 N   0  0  0  0  0  0  0  0  0  0  0  0
   21.3873    6.6638   31.3301 N   0  0  0  0  0  0  0  0  0  0  0  0
   20.7487    5.5080   31.1215 C   0  0  0  0  0  0  0  0  0  0  0  0
   19.5319    5.3796   31.2433 O   0  0  0  0  0  0  0  0  0  0  0  0
   21.5762    4.2864   30.6944 C   0  0  0  0  0  0  0  0  0  0  0  0
   23.0915    4.4911   30.6827 C   0  0  0  0  0  0  0  0  0  0  0  0
   23.6888    5.3698   29.7694 C   0  0  0  0  0  0  0  0  0  0  0  0
   25.0671    5.5919   29.8016 C   0  0  0  0  0  0  0  0  0  0  0  0
   25.7101    6.5802   28.8490 C   0  0  0  0  0  0  0  0  0  0  0  0
   25.8566    4.9019   30.7231 C   0  0  0  0  0  0  0  0  0  0  0  0
   25.2705    4.0092   31.6200 C   0  0  0  0  0  0  0  0  0  0  0  0
   23.8912    3.8073   31.6026 C   0  0  0  0  0  0  0  0  0  0  0  0
   24.9462   12.0042   29.6556 H   0  0  0  0  0  0  0  0  0  0  0  0
   23.3849   12.8898   29.7228 H   0  0  0  0  0  0  0  0  0  0  0  0
   24.3501   12.6564   31.2196 H   0  0  0  0  0  0  0  0  0  0  0  0
   23.0094   10.4278   29.5809 H   0  0  0  0  0  0  0  0  0  0  0  0
   23.9746   10.1943   31.0777 H   0  0  0  0  0  0  0  0  0  0  0  0
   19.1604    7.2071   32.8404 H   0  0  0  0  0  0  0  0  0  0  0  0
   18.0925   10.4046   33.8982 H   0  0  0  0  0  0  0  0  0  0  0  0
   17.4840    9.0828   33.1573 H   0  0  0  0  0  0  0  0  0  0  0  0
   19.2867    4.4824   31.0497 H   0  0  0  0  0  0  0  0  0  0  0  0
   21.3504    3.4640   31.3892 H   0  0  0  0  0  0  0  0  0  0  0  0
   21.2642    4.0039   29.6781 H   0  0  0  0  0  0  0  0  0  0  0  0
   23.0799    5.8782   29.0365 H   0  0  0  0  0  0  0  0  0  0  0  0
   25.7251    7.5786   29.3106 H   0  0  0  0  0  0  0  0  0  0  0  0
   26.7402    6.2618   28.6307 H   0  0  0  0  0  0  0  0  0  0  0  0
   25.1319    6.6173   27.9140 H   0  0  0  0  0  0  0  0  0  0  0  0
   26.9248    5.0599   30.7415 H   0  0  0  0  0  0  0  0  0  0  0  0
   25.8854    3.4740   32.3284 H   0  0  0  0  0  0  0  0  0  0  0  0
   23.4391    3.1201   32.3024 H   0  0  0  0  0  0  0  0  0  0  0  0
  1  2  1  0  0  0  0
  2  3  1  0  0  0  0
  3  4  1  0  0  0  0
  4 10  2  0  0  0  0
  4  5  1  0  0  0  0
  5  6  2  0  0  0  0
  6  7  1  0  0  0  0
  6 13  1  0  0  0  0
  7  8  2  0  0  0  0
  8  9  1  0  0  0  0
  8 10  1  0  0  0  0
 10 11  1  0  0  0  0
 11 12  3  0  0  0  0
 13 14  2  0  0  0  0
 14 15  1  0  0  0  0
 14 16  1  0  0  0  0
 16 17  1  0  0  0  0
 17 23  2  0  0  0  0
 17 18  1  0  0  0  0
 18 19  2  0  0  0  0
 19 20  1  0  0  0  0
 19 21  1  0  0  0  0
 21 22  2  0  0  0  0
 22 23  1  0  0  0  0
  1 24  1  0  0  0  0
  1 25  1  0  0  0  0
  1 26  1  0  0  0  0
  2 27  1  0  0  0  0
  2 28  1  0  0  0  0
  7 29  1  0  0  0  0
  9 30  1  0  0  0  0
  9 31  1  0  0  0  0
 15 32  1  0  0  0  0
 16 33  1  0  0  0  0
 16 34  1  0  0  0  0
 18 35  1  0  0  0  0
 20 36  1  0  0  0  0
 20 37  1  0  0  0  0
 20 38  1  0  0  0  0
 21 39  1  0  0  0  0
 22 40  1  0  0  0  0
 23 41  1  0  0  0  0
M  END
> <i_m_stars>
0

> <r_user_dG.exp>
-8.67377

$$$$
18629-1
  -OEChem-05192314073D
 Structure written by MMmdl.
 41 42  0     0  0  0  0  0  0999 V2000
   24.0510   12.2016   30.2637 C   0  0  0  0  0  0  0  0  0  0  0  0
   23.3159   10.8864   30.5326 C   0  0  0  0  0  0  0  0  0  0  0  0
   22.1655   11.1828   31.3207 O   0  0  0  0  0  0  0  0  0  0  0  0
   21.3477   10.1523   31.7514 C   0  0  0  0  0  0  0  0  0  0  0  0
   21.6919    8.8874   31.3853 N   0  0  0  0  0  0  0  0  0  0  0  0
   20.8972    7.8767   31.7648 C   0  0  0  0  0  0  0  0  0  0  0  0
   19.7610    8.0525   32.5388 C   0  0  0  0  0  0  0  0  0  0  0  0
   19.4157    9.3373   32.9151 C   0  0  0  0  0  0  0  0  0  0  0  0
   18.2588    9.4438   33.6763 N   0  0  0  0  0  0  0  0  0  0  0  0
   20.2113   10.4260   32.5218 C   0  0  0  0  0  0  0  0  0  0  0  0
   19.8989   11.8070   32.8723 C   0  0  0  0  0  0  0  0  0  0  0  0
   19.6587   12.9061   33.1464 N   0  0  0  0  0  0  0  0  0  0  0  0
   21.3873    6.6638   31.3301 N   0  0  0  0  0  0  0  0  0  0  0  0
   20.7487    5.5080   31.1215 C   0  0  0  0  0  0  0  0  0  0  0  0
   19.5319    5.3796   31.2433 O   0  0  0  0  0  0  0  0  0  0  0  0
   21.5762    4.2864   30.6944 C   0  0  0  0  0  0  0  0  0  0  0  0
   23.0915    4.4911   30.6827 C   0  0  0  0  0  0  0  0  0  0  0  0
   23.6888    5.3698   29.7694 C   0  0  0  0  0  0  0  0  0  0  0  0
   25.0671    5.5919   29.8016 C   0  0  0  0  0  0  0  0  0  0  0  0
   25.7101    6.5802   28.8490 C   0  0  0  0  0  0  0  0  0  0  0  0
   25.8566    4.9019   30.7231 C   0  0  0  0  0  0  0  0  0  0  0  0
   25.2705    4.0092   31.6200 C   0  0  0  0  0  0  0  0  0  0  0  0
   23.8912    3.8073   31.6026 C   0  0  0  0  0  0  0  0  0  0  0  0
   24.9462   12.0042   29.6556 H   0  0  0  0  0  0  0  0  0  0  0  0
   23.3849   12.8898   29.7228 H   0  0  0  0  0  0  0  0  0  0  0  0
   24.3501   12.6564   31.2196 H   0  0  0  0  0  0  0  0  0  0  0  0
   23.0094   10.4278   29.5809 H   0  0  0  0  0  0  0  0  0  0  0  0
   23.9746   10.1943   31.0777 H   0  0  0  0  0  0  0  0  0  0  0  0
   22.5169    8.7163   30.8467 H   0  0  0  0  0  0  0  0  0  0  0  0
   19.1604    7.2071   32.8404 H   0  0  0  0  0  0  0  0  0  0  0  0
   18.0538   10.3929   33.9154 H   0  0  0  0  0  0  0  0  0  0  0  0
   22.3694    6.6458   31.1423 H   0  0  0  0  0  0  0  0  0  0  0  0
   21.3504    3.4640   31.3892 H   0  0  0  0  0  0  0  0  0  0  0  0
   21.2642    4.0039   29.6781 H   0  0  0  0  0  0  0  0  0  0  0  0
   23.0799    5.8782   29.0365 H   0  0  0  0  0  0  0  0  0  0  0  0
   25.7251    7.5786   29.3106 H   0  0  0  0  0  0  0  0  0  0  0  0
   26.7402    6.2618   28.6307 H   0  0  0  0  0  0  0  0  0  0  0  0
   25.1319    6.6173   27.9140 H   0  0  0  0  0  0  0  0  0  0  0  0
   26.9248    5.0599   30.7415 H   0  0  0  0  0  0  0  0  0  0  0  0
   25.8854    3.4740   32.3284 H   0  0  0  0  0  0  0  0  0  0  0  0
   23.4391    3.1201   32.3024 H   0  0  0  0  0  0  0  0  0  0  0  0
  1  2  1  0  0  0  0
  2  3  1  0  0  0  0
  3  4  1  0  0  0  0
  4 10  2  0  0  0  0
  4  5  1  0  0  0  0
  5  6  1  0  0  0  0
  6  7  2  0  0  0  0
  6 13  1  0  0  0  0
  7  8  1  0  0  0  0
  8  9  2  0  0  0  0
  8 10  1  0  0  0  0
 10 11  1  0  0  0  0
 11 12  3  0  0  0  0
 13 14  1  0  0  0  0
 14 15  2  0  0  0  0
 14 16  1  0  0  0  0
 16 17  1  0  0  0  0
 17 23  2  0  0  0  0
 17 18  1  0  0  0  0
 18 19  2  0  0  0  0
 19 20  1  0  0  0  0
 19 21  1  0  0  0  0
 21 22  2  0  0  0  0
 22 23  1  0  0  0  0
  1 24  1  0  0  0  0
  1 25  1  0  0  0  0
  1 26  1  0  0  0  0
  2 27  1  0  0  0  0
  2 28  1  0  0  0  0
  5 29  1  0  0  0  0
  7 30  1  0  0  0  0
  9 31  1  0  0  0  0
 13 32  1  0  0  0  0
 16 33  1  0  0  0  0
 16 34  1  0  0  0  0
 18 35  1  0  0  0  0
 20 36  1  0  0  0  0
 20 37  1  0  0  0  0
 20 38  1  0  0  0  0
 21 39  1  0  0  0  0
 22 40  1  0  0  0  0
 23 41  1  0  0  0  0
M  END
> <i_m_stars>
0

> <r_user_dG.exp>
-8.67377

$$$$
18629-1
  -OEChem-05192314073D
 Structure written by MMmdl.
 41 42  0     0  0  0  0  0  0999 V2000
   24.0510   12.2016   30.2637 C   0  0  0  0  0  0  0  0  0  0  0  0
   23.3159   10.8864   30.5326 C   0  0  0  0  0  0  0  0  0  0  0  0
   22.1655   11.1828   31.3207 O   0  0  0  0  0  0  0  0  0  0  0  0
   21.3477   10.1523   31.7514 C   0  0  0  0  0  0  0  0  0  0  0  0
   21.6919    8.8874   31.3853 N   0  0  0  0  0  0  0  0  0  0  0  0
   20.8972    7.8767   31.7648 C   0  0  0  0  0  0  0  0  0  0  0  0
   19.7610    8.0525   32.5388 C   0  0  0  0  0  0  0  0  0  0  0  0
   19.4157    9.3373   32.9151 C   0  0  0  0  0  0  0  0  0  0  0  0
   18.2588    9.4438   33.6763 N   0  0  0  0  0  0  0  0  0  0  0  0
   20.2113   10.4260   32.5218 C   0  0  0  0  0  0  0  0  0  0  0  0
   19.8989   11.8070   32.8723 C   0  0  0  0  0  0  0  0  0  0  0  0
   19.6587   12.9061   33.1464 N   0  0  0  0  0  0  0  0  0  0  0  0
   21.3873    6.6638   31.3301 N   0  0  0  0  0  0  0  0  0  0  0  0
   20.7487    5.5080   31.1215 C   0  0  0  0  0  0  0  0  0  0  0  0
   19.5319    5.3796   31.2433 O   0  0  0  0  0  0  0  0  0  0  0  0
   21.5762    4.2864   30.6944 C   0  0  0  0  0  0  0  0  0  0  0  0
   23.0915    4.4911   30.6827 C   0  0  0  0  0  0  0  0  0  0  0  0
   23.6888    5.3698   29.7694 C   0  0  0  0  0  0  0  0  0  0  0  0
   25.0671    5.5919   29.8016 C   0  0  0  0  0  0  0  0  0  0  0  0
   25.7101    6.5802   28.8490 C   0  0  0  0  0  0  0  0  0  0  0  0
   25.8566    4.9019   30.7231 C   0  0  0  0  0  0  0  0  0  0  0  0
   25.2705    4.0092   31.6200 C   0  0  0  0  0  0  0  0  0  0  0  0
   23.8912    3.8073   31.6026 C   0  0  0  0  0  0  0  0  0  0  0  0
   24.9462   12.0042   29.6556 H   0  0  0  0  0  0  0  0  0  0  0  0
   23.3849   12.8898   29.7228 H   0  0  0  0  0  0  0  0  0  0  0  0
   24.3501   12.6564   31.2196 H   0  0  0  0  0  0  0  0  0  0  0  0
   23.0094   10.4278   29.5809 H   0  0  0  0  0  0  0  0  0  0  0  0
   23.9746   10.1943   31.0777 H   0  0  0  0  0  0  0  0  0  0  0  0
   22.5169    8.7163   30.8467 H   0  0  0  0  0  0  0  0  0  0  0  0
   19.1604    7.2071   32.8404 H   0  0  0  0  0  0  0  0  0  0  0  0
   18.0925   10.4046   33.8982 H   0  0  0  0  0  0  0  0  0  0  0  0
   17.4840    9.0828   33.1573 H   0  0  0  0  0  0  0  0  0  0  0  0
   21.3504    3.4640   31.3892 H   0  0  0  0  0  0  0  0  0  0  0  0
   21.2642    4.0039   29.6781 H   0  0  0  0  0  0  0  0  0  0  0  0
   23.0799    5.8782   29.0365 H   0  0  0  0  0  0  0  0  0  0  0  0
   25.7251    7.5786   29.3106 H   0  0  0  0  0  0  0  0  0  0  0  0
   26.7402    6.2618   28.6307 H   0  0  0  0  0  0  0  0  0  0  0  0
   25.1319    6.6173   27.9140 H   0  0  0  0  0  0  0  0  0  0  0  0
   26.9248    5.0599   30.7415 H   0  0  0  0  0  0  0  0  0  0  0  0
   25.8854    3.4740   32.3284 H   0  0  0  0  0  0  0  0  0  0  0  0
   23.4391    3.1201   32.3024 H   0  0  0  0  0  0  0  0  0  0  0  0
  1  2  1  0  0  0  0
  2  3  1  0  0  0  0
  3  4  1  0  0  0  0
  4 10  2  0  0  0  0
  4  5  1  0  0  0  0
  5  6  1  0  0  0  0
  6  7  1  0  0  0  0
  6 13  2  0  0  0  0
  7  8  2  0  0  0  0
  8  9  1  0  0  0  0
  8 10  1  0  0  0  0
 10 11  1  0  0  0  0
 11 12  3  0  0  0  0
 13 14  1  0  0  0  0
 14 15  2  0  0  0  0
 14 16  1  0  0  0  0
 16 17  1  0  0  0  0
 17 23  2  0  0  0  0
 17 18  1  0  0  0  0
 18 19  2  0  0  0  0
 19 20  1  0  0  0  0
 19 21  1  0  0  0  0
 21 22  2  0  0  0  0
 22 23  1  0  0  0  0
  1 24  1  0  0  0  0
  1 25  1  0  0  0  0
  1 26  1  0  0  0  0
  2 27  1  0  0  0  0
  2 28  1  0  0  0  0
  5 29  1  0  0  0  0
  7 30  1  0  0  0  0
  9 31  1  0  0  0  0
  9 32  1  0  0  0  0
 16 33  1  0  0  0  0
 16 34  1  0  0  0  0
 18 35  1  0  0  0  0
 20 36  1  0  0  0  0
 20 37  1  0  0  0  0
 20 38  1  0  0  0  0
 21 39  1  0  0  0  0
 22 40  1  0  0  0  0
 23 41  1  0  0  0  0
M  END
> <i_m_stars>
0

> <r_user_dG.exp>
-8.67377

$$$$
18629-1
  -OEChem-05192314073D
 Structure written by MMmdl.
 41 42  0     0  0  0  0  0  0999 V2000
   24.0510   12.2016   30.2637 C   0  0  0  0  0  0  0  0  0  0  0  0
   23.3159   10.8864   30.5326 C   0  0  0  0  0  0  0  0  0  0  0  0
   22.1655   11.1828   31.3207 O   0  0  0  0  0  0  0  0  0  0  0  0
   21.3477   10.1523   31.7514 C   0  0  0  0  0  0  0  0  0  0  0  0
   21.6919    8.8874   31.3853 N   0  0  0  0  0  0  0  0  0  0  0  0
   20.8972    7.8767   31.7648 C   0  0  0  0  0  0  0  0  0  0  0  0
   19.7610    8.0525   32.5388 C   0  0  0  0  0  0  0  0  0  0  0  0
   19.4157    9.3373   32.9151 C   0  0  0  0  0  0  0  0  0  0  0  0
   18.2588    9.4438   33.6763 N   0  0  0  0  0  0  0  0  0  0  0  0
   20.2113   10.4260   32.5218 C   0  0  0  0  0  0  0  0  0  0  0  0
   19.8989   11.8070   32.8723 C   0  0  0  0  0  0  0  0  0  0  0  0
   19.6587   12.9061   33.1464 N   0  0  0  0  0  0  0  0  0  0  0  0
   21.3873    6.6638   31.3301 N   0  0  0  0  0  0  0  0  0  0  0  0
   20.7487    5.5080   31.1215 C   0  0  0  0  0  0  0  0  0  0  0  0
   19.5319    5.3796   31.2433 O   0  0  0  0  0  0  0  0  0  0  0  0
   21.5762    4.2864   30.6944 C   0  0  0  0  0  0  0  0  0  0  0  0
   23.0915    4.4911   30.6827 C   0  0  0  0  0  0  0  0  0  0  0  0
   23.6888    5.3698   29.7694 C   0  0  0  0  0  0  0  0  0  0  0  0
   25.0671    5.5919   29.8016 C   0  0  0  0  0  0  0  0  0  0  0  0
   25.7101    6.5802   28.8490 C   0  0  0  0  0  0  0  0  0  0  0  0
   25.8566    4.9019   30.7231 C   0  0  0  0  0  0  0  0  0  0  0  0
   25.2705    4.0092   31.6200 C   0  0  0  0  0  0  0  0  0  0  0  0
   23.8912    3.8073   31.6026 C   0  0  0  0  0  0  0  0  0  0  0  0
   24.9462   12.0042   29.6556 H   0  0  0  0  0  0  0  0  0  0  0  0
   23.3849   12.8898   29.7228 H   0  0  0  0  0  0  0  0  0  0  0  0
   24.3501   12.6564   31.2196 H   0  0  0  0  0  0  0  0  0  0  0  0
   23.0094   10.4278   29.5809 H   0  0  0  0  0  0  0  0  0  0  0  0
   23.9746   10.1943   31.0777 H   0  0  0  0  0  0  0  0  0  0  0  0
   22.5169    8.7163   30.8467 H   0  0  0  0  0  0  0  0  0  0  0  0
   19.1604    7.2071   32.8404 H   0  0  0  0  0  0  0  0  0  0  0  0
   18.0538   10.3929   33.9154 H   0  0  0  0  0  0  0  0  0  0  0  0
   19.2867    4.4824   31.0497 H   0  0  0  0  0  0  0  0  0  0  0  0
   21.3504    3.4640   31.3892 H   0  0  0  0  0  0  0  0  0  0  0  0
   21.2642    4.0039   29.6781 H   0  0  0  0  0  0  0  0  0  0  0  0
   23.0799    5.8782   29.0365 H   0  0  0  0  0  0  0  0  0  0  0  0
   25.7251    7.5786   29.3106 H   0  0  0  0  0  0  0  0  0  0  0  0
   26.7402    6.2618   28.6307 H   0  0  0  0  0  0  0  0  0  0  0  0
   25.1319    6.6173   27.9140 H   0  0  0  0  0  0  0  0  0  0  0  0
   26.9248    5.0599   30.7415 H   0  0  0  0  0  0  0  0  0  0  0  0
   25.8854    3.4740   32.3284 H   0  0  0  0  0  0  0  0  0  0  0  0
   23.4391    3.1201   32.3024 H   0  0  0  0  0  0  0  0  0  0  0  0
  1  2  1  0  0  0  0
  2  3  1  0  0  0  0
  3  4  1  0  0  0  0
  4 10  2  0  0  0  0
  4  5  1  0  0  0  0
  5  6  1  0  0  0  0
  6  7  2  0  0  0  0
  6 13  1  0  0  0  0
  7  8  1  0  0  0  0
  8  9  2  0  0  0  0
  8 10  1  0  0  0  0
 10 11  1  0  0  0  0
 11 12  3  0  0  0  0
 13 14  2  0  0  0  0
 14 15  1  0  0  0  0
 14 16  1  0  0  0  0
 16 17  1  0  0  0  0
 17 23  2  0  0  0  0
 17 18  1  0  0  0  0
 18 19  2  0  0  0  0
 19 20  1  0  0  0  0
 19 21  1  0  0  0  0
 21 22  2  0  0  0  0
 22 23  1  0  0  0  0
  1 24  1  0  0  0  0
  1 25  1  0  0  0  0
  1 26  1  0  0  0  0
  2 27  1  0  0  0  0
  2 28  1  0  0  0  0
  5 29  1  0  0  0  0
  7 30  1  0  0  0  0
  9 31  1  0  0  0  0
 15 32  1  0  0  0  0
 16 33  1  0  0  0  0
 16 34  1  0  0  0  0
 18 35  1  0  0  0  0
 20 36  1  0  0  0  0
 20 37  1  0  0  0  0
 20 38  1  0  0  0  0
 21 39  1  0  0  0  0
 22 40  1  0  0  0  0
 23 41  1  0  0  0  0
M  END
> <i_m_stars>
0

> <r_user_dG.exp>
-8.67377

$$$$
18629-1
  -OEChem-05192314073D
 Structure written by MMmdl.
 41 42  0     1  0  0  0  0  0999 V2000
   24.0510   12.2016   30.2637 C   0  0  0  0  0  0  0  0  0  0  0  0
   23.3159   10.8864   30.5326 C   0  0  0  0  0  0  0  0  0  0  0  0
   22.1655   11.1828   31.3207 O   0  0  0  0  0  0  0  0  0  0  0  0
   21.3477   10.1523   31.7514 C   0  0  0  0  0  0  0  0  0  0  0  0
   21.6919    8.8874   31.3853 N   0  0  0  0  0  0  0  0  0  0  0  0
   20.8972    7.8767   31.7648 C   0  0  0  0  0  0  0  0  0  0  0  0
   19.7610    8.0525   32.5388 C   0  0  0  0  0  0  0  0  0  0  0  0
   19.4157    9.3373   32.9151 C   0  0  0  0  0  0  0  0  0  0  0  0
   18.2588    9.4438   33.6763 N   0  0  0  0  0  0  0  0  0  0  0  0
   20.2113   10.4260   32.5218 C   0  0  3  0  0  0  0  0  0  0  0  0
   19.8989   11.8070   32.8723 C   0  0  0  0  0  0  0  0  0  0  0  0
   19.6587   12.9061   33.1464 N   0  0  0  0  0  0  0  0  0  0  0  0
   21.3873    6.6638   31.3301 N   0  0  0  0  0  0  0  0  0  0  0  0
   20.7487    5.5080   31.1215 C   0  0  0  0  0  0  0  0  0  0  0  0
   19.5319    5.3796   31.2433 O   0  0  0  0  0  0  0  0  0  0  0  0
   21.5762    4.2864   30.6944 C   0  0  0  0  0  0  0  0  0  0  0  0
   23.0915    4.4911   30.6827 C   0  0  0  0  0  0  0  0  0  0  0  0
   23.6888    5.3698   29.7694 C   0  0  0  0  0  0  0  0  0  0  0  0
   25.0671    5.5919   29.8016 C   0  0  0  0  0  0  0  0  0  0  0  0
   25.7101    6.5802   28.8490 C   0  0  0  0  0  0  0  0  0  0  0  0
   25.8566    4.9019   30.7231 C   0  0  0  0  0  0  0  0  0  0  0  0
   25.2705    4.0092   31.6200 C   0  0  0  0  0  0  0  0  0  0  0  0
   23.8912    3.8073   31.6026 C   0  0  0  0  0  0  0  0  0  0  0  0
   24.9462   12.0042   29.6556 H   0  0  0  0  0  0  0  0  0  0  0  0
   23.3849   12.8898   29.7228 H   0  0  0  0  0  0  0  0  0  0  0  0
   24.3501   12.6564   31.2196 H   0  0  0  0  0  0  0  0  0  0  0  0
   23.0094   10.4278   29.5809 H   0  0  0  0  0  0  0  0  0  0  0  0
   23.9746   10.1943   31.0777 H   0  0  0  0  0  0  0  0  0  0  0  0
   18.9135    7.6407   31.9712 H   0  0  0  0  0  0  0  0  0  0  0  0
   19.9021    7.4700   33.4612 H   0  0  0  0  0  0  0  0  0  0  0  0
   18.0538   10.3929   33.9154 H   0  0  0  0  0  0  0  0  0  0  0  0
   20.8073   10.3253   33.4408 H   0  0  0  0  0  0  0  0  0  0  0  0
   21.3504    3.4640   31.3892 H   0  0  0  0  0  0  0  0  0  0  0  0
   21.2642    4.0039   29.6781 H   0  0  0  0  0  0  0  0  0  0  0  0
   23.0799    5.8782   29.0365 H   0  0  0  0  0  0  0  0  0  0  0  0
   25.7251    7.5786   29.3106 H   0  0  0  0  0  0  0  0  0  0  0  0
   26.7402    6.2618   28.6307 H   0  0  0  0  0  0  0  0  0  0  0  0
   25.1319    6.6173   27.9140 H   0  0  0  0  0  0  0  0  0  0  0  0
   26.9248    5.0599   30.7415 H   0  0  0  0  0  0  0  0  0  0  0  0
   25.8854    3.4740   32.3284 H   0  0  0  0  0  0  0  0  0  0  0  0
   23.4391    3.1201   32.3024 H   0  0  0  0  0  0  0  0  0  0  0  0
  1  2  1  0  0  0  0
  2  3  1  0  0  0  0
  3  4  1  0  0  0  0
  4 10  1  0  0  0  0
  4  5  2  0  0  0  0
  5  6  1  0  0  0  0
  6  7  1  0  0  0  0
  6 13  2  0  0  0  0
  7  8  1  0  0  0  0
  8  9  2  0  0  0  0
  8 10  1  0  0  0  0
 10 11  1  0  0  0  0
 11 12  3  0  0  0  0
 13 14  1  0  0  0  0
 14 15  2  0  0  0  0
 14 16  1  0  0  0  0
 16 17  1  0  0  0  0
 17 23  2  0  0  0  0
 17 18  1  0  0  0  0
 18 19  2  0  0  0  0
 19 20  1  0  0  0  0
 19 21  1  0  0  0  0
 21 22  2  0  0  0  0
 22 23  1  0  0  0  0
  1 24  1  0  0  0  0
  1 25  1  0  0  0  0
  1 26  1  0  0  0  0
  2 27  1  0  0  0  0
  2 28  1  0  0  0  0
  7 29  1  0  0  0  0
  7 30  1  0  0  0  0
  9 31  1  0  0  0  0
 10 32  1  0  0  0  0
 16 33  1  0  0  0  0
 16 34  1  0  0  0  0
 18 35  1  0  0  0  0
 20 36  1  0  0  0  0
 20 37  1  0  0  0  0
 20 38  1  0  0  0  0
 21 39  1  0  0  0  0
 22 40  1  0  0  0  0
 23 41  1  0  0  0  0
M  END
> <i_m_stars>
0

> <r_user_dG.exp>
-8.67377

$$$$
18629-1
  -OEChem-05192314073D
 Structure written by MMmdl.
 41 42  0     1  0  0  0  0  0999 V2000
   24.0510   12.2016   30.2637 C   0  0  0  0  0  0  0  0  0  0  0  0
   23.3159   10.8864   30.5326 C   0  0  0  0  0  0  0  0  0  0  0  0
   22.1655   11.1828   31.3207 O   0  0  0  0  0  0  0  0  0  0  0  0
   21.3477   10.1523   31.7514 C   0  0  0  0  0  0  0  0  0  0  0  0
   21.6919    8.8874   31.3853 N   0  0  0  0  0  0  0  0  0  0  0  0
   20.8972    7.8767   31.7648 C   0  0  0  0  0  0  0  0  0  0  0  0
   19.7610    8.0525   32.5388 C   0  0  0  0  0  0  0  0  0  0  0  0
   19.4157    9.3373   32.9151 C   0  0  0  0  0  0  0  0  0  0  0  0
   18.2588    9.4438   33.6763 N   0  0  0  0  0  0  0  0  0  0  0  0
   20.2113   10.4260   32.5218 C   0  0  3  0  0  0  0  0  0  0  0  0
   19.8989   11.8070   32.8723 C   0  0  0  0  0  0  0  0  0  0  0  0
   19.6587   12.9061   33.1464 N   0  0  0  0  0  0  0  0  0  0  0  0
   21.3873    6.6638   31.3301 N   0  0  0  0  0  0  0  0  0  0  0  0
   20.7487    5.5080   31.1215 C   0  0  0  0  0  0  0  0  0  0  0  0
   19.5319    5.3796   31.2433 O   0  0  0  0  0  0  0  0  0  0  0  0
   21.5762    4.2864   30.6944 C   0  0  0  0  0  0  0  0  0  0  0  0
   23.0915    4.4911   30.6827 C   0  0  0  0  0  0  0  0  0  0  0  0
   23.6888    5.3698   29.7694 C   0  0  0  0  0  0  0  0  0  0  0  0
   25.0671    5.5919   29.8016 C   0  0  0  0  0  0  0  0  0  0  0  0
   25.7101    6.5802   28.8490 C   0  0  0  0  0  0  0  0  0  0  0  0
   25.8566    4.9019   30.7231 C   0  0  0  0  0  0  0  0  0  0  0  0
   25.2705    4.0092   31.6200 C   0  0  0  0  0  0  0  0  0  0  0  0
   23.8912    3.8073   31.6026 C   0  0  0  0  0  0  0  0  0  0  0  0
   24.9462   12.0042   29.6556 H   0  0  0  0  0  0  0  0  0  0  0  0
   23.3849   12.8898   29.7228 H   0  0  0  0  0  0  0  0  0  0  0  0
   24.3501   12.6564   31.2196 H   0  0  0  0  0  0  0  0  0  0  0  0
   23.0094   10.4278   29.5809 H   0  0  0  0  0  0  0  0  0  0  0  0
   23.9746   10.1943   31.0777 H   0  0  0  0  0  0  0  0  0  0  0  0
   19.1604    7.2071   32.8404 H   0  0  0  0  0  0  0  0  0  0  0  0
   18.0538   10.3929   33.9154 H   0  0  0  0  0  0  0  0  0  0  0  0
   20.8073   10.3253   33.4408 H   0  0  0  0  0  0  0  0  0  0  0  0
   22.3694    6.6458   31.1423 H   0  0  0  0  0  0  0  0  0  0  0  0
   21.3504    3.4640   31.3892 H   0  0  0  0  0  0  0  0  0  0  0  0
   21.2642    4.0039   29.6781 H   0  0  0  0  0  0  0  0  0  0  0  0
   23.0799    5.8782   29.0365 H   0  0  0  0  0  0  0  0  0  0  0  0
   25.7251    7.5786   29.3106 H   0  0  0  0  0  0  0  0  0  0  0  0
   26.7402    6.2618   28.6307 H   0  0  0  0  0  0  0  0  0  0  0  0
   25.1319    6.6173   27.9140 H   0  0  0  0  0  0  0  0  0  0  0  0
   26.9248    5.0599   30.7415 H   0  0  0  0  0  0  0  0  0  0  0  0
   25.8854    3.4740   32.3284 H   0  0  0  0  0  0  0  0  0  0  0  0
   23.4391    3.1201   32.3024 H   0  0  0  0  0  0  0  0  0  0  0  0
  1  2  1  0  0  0  0
  2  3  1  0  0  0  0
  3  4  1  0  0  0  0
  4 10  1  0  0  0  0
  4  5  2  0  0  0  0
  5  6  1  0  0  0  0
  6  7  2  0  0  0  0
  6 13  1  0  0  0  0
  7  8  1  0  0  0  0
  8  9  2  0  0  0  0
  8 10  1  0  0  0  0
 10 11  1  0  0  0  0
 11 12  3  0  0  0  0
 13 14  1  0  0  0  0
 14 15  2  0  0  0  0
 14 16  1  0  0  0  0
 16 17  1  0  0  0  0
 17 23  2  0  0  0  0
 17 18  1  0  0  0  0
 18 19  2  0  0  0  0
 19 20  1  0  0  0  0
 19 21  1  0  0  0  0
 21 22  2  0  0  0  0
 22 23  1  0  0  0  0
  1 24  1  0  0  0  0
  1 25  1  0  0  0  0
  1 26  1  0  0  0  0
  2 27  1  0  0  0  0
  2 28  1  0  0  0  0
  7 29  1  0  0  0  0
  9 30  1  0  0  0  0
 10 31  1  0  0  0  0
 13 32  1  0  0  0  0
 16 33  1  0  0  0  0
 16 34  1  0  0  0  0
 18 35  1  0  0  0  0
 20 36  1  0  0  0  0
 20 37  1  0  0  0  0
 20 38  1  0  0  0  0
 21 39  1  0  0  0  0
 22 40  1  0  0  0  0
 23 41  1  0  0  0  0
M  END
> <i_m_stars>
0

> <r_user_dG.exp>
-8.67377

$$$$
18629-1
  -OEChem-05192314073D
 Structure written by MMmdl.
 41 42  0     0  0  0  0  0  0999 V2000
   24.0510   12.2016   30.2637 C   0  0  0  0  0  0  0  0  0  0  0  0
   23.3159   10.8864   30.5326 C   0  0  0  0  0  0  0  0  0  0  0  0
   22.1655   11.1828   31.3207 O   0  0  0  0  0  0  0  0  0  0  0  0
   21.3477   10.1523   31.7514 C   0  0  0  0  0  0  0  0  0  0  0  0
   21.6919    8.8874   31.3853 N   0  0  0  0  0  0  0  0  0  0  0  0
   20.8972    7.8767   31.7648 C   0  0  0  0  0  0  0  0  0  0  0  0
   19.7610    8.0525   32.5388 C   0  0  0  0  0  0  0  0  0  0  0  0
   19.4157    9.3373   32.9151 C   0  0  0  0  0  0  0  0  0  0  0  0
   18.2588    9.4438   33.6763 N   0  0  0  0  0  0  0  0  0  0  0  0
   20.2113   10.4260   32.5218 C   0  0  0  0  0  0  0  0  0  0  0  0
   19.8989   11.8070   32.8723 C   0  0  0  0  0  0  0  0  0  0  0  0
   19.6587   12.9061   33.1464 N   0  0  0  0  0  0  0  0  0  0  0  0
   21.3873    6.6638   31.3301 N   0  0  0  0  0  0  0  0  0  0  0  0
   20.7487    5.5080   31.1215 C   0  0  0  0  0  0  0  0  0  0  0  0
   19.5319    5.3796   31.2433 O   0  0  0  0  0  0  0  0  0  0  0  0
   21.5762    4.2864   30.6944 C   0  0  0  0  0  0  0  0  0  0  0  0
   23.0915    4.4911   30.6827 C   0  0  0  0  0  0  0  0  0  0  0  0
   23.6888    5.3698   29.7694 C   0  0  0  0  0  0  0  0  0  0  0  0
   25.0671    5.5919   29.8016 C   0  0  0  0  0  0  0  0  0  0  0  0
   25.7101    6.5802   28.8490 C   0  0  0  0  0  0  0  0  0  0  0  0
   25.8566    4.9019   30.7231 C   0  0  0  0  0  0  0  0  0  0  0  0
   25.2705    4.0092   31.6200 C   0  0  0  0  0  0  0  0  0  0  0  0
   23.8912    3.8073   31.6026 C   0  0  0  0  0  0  0  0  0  0  0  0
   24.9462   12.0042   29.6556 H   0  0  0  0  0  0  0  0  0  0  0  0
   23.3849   12.8898   29.7228 H   0  0  0  0  0  0  0  0  0  0  0  0
   24.3501   12.6564   31.2196 H   0  0  0  0  0  0  0  0  0  0  0  0
   23.0094   10.4278   29.5809 H   0  0  0  0  0  0  0  0  0  0  0  0
   23.9746   10.1943   31.0777 H   0  0  0  0  0  0  0  0  0  0  0  0
   18.9135    7.6407   31.9712 H   0  0  0  0  0  0  0  0  0  0  0  0
   19.9021    7.4700   33.4612 H   0  0  0  0  0  0  0  0  0  0  0  0
   18.0538   10.3929   33.9154 H   0  0  0  0  0  0  0  0  0  0  0  0
   22.3694    6.6458   31.1423 H   0  0  0  0  0  0  0  0  0  0  0  0
   21.3504    3.4640   31.3892 H   0  0  0  0  0  0  0  0  0  0  0  0
   21.2642    4.0039   29.6781 H   0  0  0  0  0  0  0  0  0  0  0  0
   23.0799    5.8782   29.0365 H   0  0  0  0  0  0  0  0  0  0  0  0
   25.7251    7.5786   29.3106 H   0  0  0  0  0  0  0  0  0  0  0  0
   26.7402    6.2618   28.6307 H   0  0  0  0  0  0  0  0  0  0  0  0
   25.1319    6.6173   27.9140 H   0  0  0  0  0  0  0  0  0  0  0  0
   26.9248    5.0599   30.7415 H   0  0  0  0  0  0  0  0  0  0  0  0
   25.8854    3.4740   32.3284 H   0  0  0  0  0  0  0  0  0  0  0  0
   23.4391    3.1201   32.3024 H   0  0  0  0  0  0  0  0  0  0  0  0
  1  2  1  0  0  0  0
  2  3  1  0  0  0  0
  3  4  1  0  0  0  0
  4 10  2  0  0  0  0
  4  5  1  0  0  0  0
  5  6  2  0  0  0  0
  6  7  1  0  0  0  0
  6 13  1  0  0  0  0
  7  8  1  0  0  0  0
  8  9  2  0  0  0  0
  8 10  1  0  0  0  0
 10 11  1  0  0  0  0
 11 12  3  0  0  0  0
 13 14  1  0  0  0  0
 14 15  2  0  0  0  0
 14 16  1  0  0  0  0
 16 17  1  0  0  0  0
 17 23  2  0  0  0  0
 17 18  1  0  0  0  0
 18 19  2  0  0  0  0
 19 20  1  0  0  0  0
 19 21  1  0  0  0  0
 21 22  2  0  0  0  0
 22 23  1  0  0  0  0
  1 24  1  0  0  0  0
  1 25  1  0  0  0  0
  1 26  1  0  0  0  0
  2 27  1  0  0  0  0
  2 28  1  0  0  0  0
  7 29  1  0  0  0  0
  7 30  1  0  0  0  0
  9 31  1  0  0  0  0
 13 32  1  0  0  0  0
 16 33  1  0  0  0  0
 16 34  1  0  0  0  0
 18 35  1  0  0  0  0
 20 36  1  0  0  0  0
 20 37  1  0  0  0  0
 20 38  1  0  0  0  0
 21 39  1  0  0  0  0
 22 40  1  0  0  0  0
 23 41  1  0  0  0  0
M  END
> <i_m_stars>
0

> <r_user_dG.exp>
-8.67377

$$$$
18629-1
  -OEChem-05192314073D
 Structure written by MMmdl.
 41 42  0     1  0  0  0  0  0999 V2000
   24.0510   12.2016   30.2637 C   0  0  0  0  0  0  0  0  0  0  0  0
   23.3159   10.8864   30.5326 C   0  0  0  0  0  0  0  0  0  0  0  0
   22.1655   11.1828   31.3207 O   0  0  0  0  0  0  0  0  0  0  0  0
   21.3477   10.1523   31.7514 C   0  0  0  0  0  0  0  0  0  0  0  0
   21.6919    8.8874   31.3853 N   0  0  0  0  0  0  0  0  0  0  0  0
   20.8972    7.8767   31.7648 C   0  0  0  0  0  0  0  0  0  0  0  0
   19.7610    8.0525   32.5388 C   0  0  0  0  0  0  0  0  0  0  0  0
   19.4157    9.3373   32.9151 C   0  0  0  0  0  0  0  0  0  0  0  0
   18.2588    9.4438   33.6763 N   0  0  0  0  0  0  0  0  0  0  0  0
   20.2113   10.4260   32.5218 C   0  0  3  0  0  0  0  0  0  0  0  0
   19.8989   11.8070   32.8723 C   0  0  0  0  0  0  0  0  0  0  0  0
   19.6587   12.9061   33.1464 N   0  0  0  0  0  0  0  0  0  0  0  0
   21.3873    6.6638   31.3301 N   0  0  0  0  0  0  0  0  0  0  0  0
   20.7487    5.5080   31.1215 C   0  0  0  0  0  0  0  0  0  0  0  0
   19.5319    5.3796   31.2433 O   0  0  0  0  0  0  0  0  0  0  0  0
   21.5762    4.2864   30.6944 C   0  0  0  0  0  0  0  0  0  0  0  0
   23.0915    4.4911   30.6827 C   0  0  0  0  0  0  0  0  0  0  0  0
   23.6888    5.3698   29.7694 C   0  0  0  0  0  0  0  0  0  0  0  0
   25.0671    5.5919   29.8016 C   0  0  0  0  0  0  0  0  0  0  0  0
   25.7101    6.5802   28.8490 C   0  0  0  0  0  0  0  0  0  0  0  0
   25.8566    4.9019   30.7231 C   0  0  0  0  0  0  0  0  0  0  0  0
   25.2705    4.0092   31.6200 C   0  0  0  0  0  0  0  0  0  0  0  0
   23.8912    3.8073   31.6026 C   0  0  0  0  0  0  0  0  0  0  0  0
   24.9462   12.0042   29.6556 H   0  0  0  0  0  0  0  0  0  0  0  0
   23.3849   12.8898   29.7228 H   0  0  0  0  0  0  0  0  0  0  0  0
   24.3501   12.6564   31.2196 H   0  0  0  0  0  0  0  0  0  0  0  0
   23.0094   10.4278   29.5809 H   0  0  0  0  0  0  0  0  0  0  0  0
   23.9746   10.1943   31.0777 H   0  0  0  0  0  0  0  0  0  0  0  0
   19.1604    7.2071   32.8404 H   0  0  0  0  0  0  0  0  0  0  0  0
   18.0925   10.4046   33.8982 H   0  0  0  0  0  0  0  0  0  0  0  0
   17.4840    9.0828   33.1573 H   0  0  0  0  0  0  0  0  0  0  0  0
   20.8073   10.3253   33.4408 H   0  0  0  0  0  0  0  0  0  0  0  0
   21.3504    3.4640   31.3892 H   0  0  0  0  0  0  0  0  0  0  0  0
   21.2642    4.0039   29.6781 H   0  0  0  0  0  0  0  0  0  0  0  0
   23.0799    5.8782   29.0365 H   0  0  0  0  0  0  0  0  0  0  0  0
   25.7251    7.5786   29.3106 H   0  0  0  0  0  0  0  0  0  0  0  0
   26.7402    6.2618   28.6307 H   0  0  0  0  0  0  0  0  0  0  0  0
   25.1319    6.6173   27.9140 H   0  0  0  0  0  0  0  0  0  0  0  0
   26.9248    5.0599   30.7415 H   0  0  0  0  0  0  0  0  0  0  0  0
   25.8854    3.4740   32.3284 H   0  0  0  0  0  0  0  0  0  0  0  0
   23.4391    3.1201   32.3024 H   0  0  0  0  0  0  0  0  0  0  0  0
  1  2  1  0  0  0  0
  2  3  1  0  0  0  0
  3  4  1  0  0  0  0
  4 10  1  0  0  0  0
  4  5  2  0  0  0  0
  5  6  1  0  0  0  0
  6  7  1  0  0  0  0
  6 13  2  0  0  0  0
  7  8  2  0  0  0  0
  8  9  1  0  0  0  0
  8 10  1  0  0  0  0
 10 11  1  0  0  0  0
 11 12  3  0  0  0  0
 13 14  1  0  0  0  0
 14 15  2  0  0  0  0
 14 16  1  0  0  0  0
 16 17  1  0  0  0  0
 17 23  2  0  0  0  0
 17 18  1  0  0  0  0
 18 19  2  0  0  0  0
 19 20  1  0  0  0  0
 19 21  1  0  0  0  0
 21 22  2  0  0  0  0
 22 23  1  0  0  0  0
  1 24  1  0  0  0  0
  1 25  1  0  0  0  0
  1 26  1  0  0  0  0
  2 27  1  0  0  0  0
  2 28  1  0  0  0  0
  7 29  1  0  0  0  0
  9 30  1  0  0  0  0
  9 31  1  0  0  0  0
 10 32  1  0  0  0  0
 16 33  1  0  0  0  0
 16 34  1  0  0  0  0
 18 35  1  0  0  0  0
 20 36  1  0  0  0  0
 20 37  1  0  0  0  0
 20 38  1  0  0  0  0
 21 39  1  0  0  0  0
 22 40  1  0  0  0  0
 23 41  1  0  0  0  0
M  END
> <i_m_stars>
0

> <r_user_dG.exp>
-8.67377

$$$$
18629-1
  -OEChem-05192314073D
 Structure written by MMmdl.
 41 42  0     0  0  0  0  0  0999 V2000
   24.0510   12.2016   30.2637 C   0  0  0  0  0  0  0  0  0  0  0  0
   23.3159   10.8864   30.5326 C   0  0  0  0  0  0  0  0  0  0  0  0
   22.1655   11.1828   31.3207 O   0  0  0  0  0  0  0  0  0  0  0  0
   21.3477   10.1523   31.7514 C   0  0  0  0  0  0  0  0  0  0  0  0
   21.6919    8.8874   31.3853 N   0  0  0  0  0  0  0  0  0  0  0  0
   20.8972    7.8767   31.7648 C   0  0  0  0  0  0  0  0  0  0  0  0
   19.7610    8.0525   32.5388 C   0  0  0  0  0  0  0  0  0  0  0  0
   19.4157    9.3373   32.9151 C   0  0  0  0  0  0  0  0  0  0  0  0
   18.2588    9.4438   33.6763 N   0  0  0  0  0  0  0  0  0  0  0  0
   20.2113   10.4260   32.5218 C   0  0  0  0  0  0  0  0  0  0  0  0
   19.8989   11.8070   32.8723 C   0  0  0  0  0  0  0  0  0  0  0  0
   19.6587   12.9061   33.1464 N   0  0  0  0  0  0  0  0  0  0  0  0
   21.3873    6.6638   31.3301 N   0  0  0  0  0  0  0  0  0  0  0  0
   20.7487    5.5080   31.1215 C   0  0  0  0  0  0  0  0  0  0  0  0
   19.5319    5.3796   31.2433 O   0  0  0  0  0  0  0  0  0  0  0  0
   21.5762    4.2864   30.6944 C   0  0  0  0  0  0  0  0  0  0  0  0
   23.0915    4.4911   30.6827 C   0  0  0  0  0  0  0  0  0  0  0  0
   23.6888    5.3698   29.7694 C   0  0  0  0  0  0  0  0  0  0  0  0
   25.0671    5.5919   29.8016 C   0  0  0  0  0  0  0  0  0  0  0  0
   25.7101    6.5802   28.8490 C   0  0  0  0  0  0  0  0  0  0  0  0
   25.8566    4.9019   30.7231 C   0  0  0  0  0  0  0  0  0  0  0  0
   25.2705    4.0092   31.6200 C   0  0  0  0  0  0  0  0  0  0  0  0
   23.8912    3.8073   31.6026 C   0  0  0  0  0  0  0  0  0  0  0  0
   24.9462   12.0042   29.6556 H   0  0  0  0  0  0  0  0  0  0  0  0
   23.3849   12.8898   29.7228 H   0  0  0  0  0  0  0  0  0  0  0  0
   24.3501   12.6564   31.2196 H   0  0  0  0  0  0  0  0  0  0  0  0
   23.0094   10.4278   29.5809 H   0  0  0  0  0  0  0  0  0  0  0  0
   23.9746   10.1943   31.0777 H   0  0  0  0  0  0  0  0  0  0  0  0
   18.9135    7.6407   31.9712 H   0  0  0  0  0  0  0  0  0  0  0  0
   19.9021    7.4700   33.4612 H   0  0  0  0  0  0  0  0  0  0  0  0
   18.0925   10.4046   33.8982 H   0  0  0  0  0  0  0  0  0  0  0  0
   17.4840    9.0828   33.1573 H   0  0  0  0  0  0  0  0  0  0  0  0
   21.3504    3.4640   31.3892 H   0  0  0  0  0  0  0  0  0  0  0  0
   21.2642    4.0039   29.6781 H   0  0  0  0  0  0  0  0  0  0  0  0
   23.0799    5.8782   29.0365 H   0  0  0  0  0  0  0  0  0  0  0  0
   25.7251    7.5786   29.3106 H   0  0  0  0  0  0  0  0  0  0  0  0
   26.7402    6.2618   28.6307 H   0  0  0  0  0  0  0  0  0  0  0  0
   25.1319    6.6173   27.9140 H   0  0  0  0  0  0  0  0  0  0  0  0
   26.9248    5.0599   30.7415 H   0  0  0  0  0  0  0  0  0  0  0  0
   25.8854    3.4740   32.3284 H   0  0  0  0  0  0  0  0  0  0  0  0
   23.4391    3.1201   32.3024 H   0  0  0  0  0  0  0  0  0  0  0  0
  1  2  1  0  0  0  0
  2  3  1  0  0  0  0
  3  4  1  0  0  0  0
  4 10  1  0  0  0  0
  4  5  2  0  0  0  0
  5  6  1  0  0  0  0
  6  7  1  0  0  0  0
  6 13  2  0  0  0  0
  7  8  1  0  0  0  0
  8  9  1  0  0  0  0
  8 10  2  0  0  0  0
 10 11  1  0  0  0  0
 11 12  3  0  0  0  0
 13 14  1  0  0  0  0
 14 15  2  0  0  0  0
 14 16  1  0  0  0  0
 16 17  1  0  0  0  0
 17 23  2  0  0  0  0
 17 18  1  0  0  0  0
 18 19  2  0  0  0  0
 19 20  1  0  0  0  0
 19 21  1  0  0  0  0
 21 22  2  0  0  0  0
 22 23  1  0  0  0  0
  1 24  1  0  0  0  0
  1 25  1  0  0  0  0
  1 26  1  0  0  0  0
  2 27  1  0  0  0  0
  2 28  1  0  0  0  0
  7 29  1  0  0  0  0
  7 30  1  0  0  0  0
  9 31  1  0  0  0  0
  9 32  1  0  0  0  0
 16 33  1  0  0  0  0
 16 34  1  0  0  0  0
 18 35  1  0  0  0  0
 20 36  1  0  0  0  0
 20 37  1  0  0  0  0
 20 38  1  0  0  0  0
 21 39  1  0  0  0  0
 22 40  1  0  0  0  0
 23 41  1  0  0  0  0
M  END
> <i_m_stars>
0

> <r_user_dG.exp>
-8.67377

$$$$
18629-1
  -OEChem-05192314073D
 Structure written by MMmdl.
 41 42  0     0  0  0  0  0  0999 V2000
   24.0510   12.2016   30.2637 C   0  0  0  0  0  0  0  0  0  0  0  0
   23.3159   10.8864   30.5326 C   0  0  0  0  0  0  0  0  0  0  0  0
   22.1655   11.1828   31.3207 O   0  0  0  0  0  0  0  0  0  0  0  0
   21.3477   10.1523   31.7514 C   0  0  0  0  0  0  0  0  0  0  0  0
   21.6919    8.8874   31.3853 N   0  0  0  0  0  0  0  0  0  0  0  0
   20.8972    7.8767   31.7648 C   0  0  0  0  0  0  0  0  0  0  0  0
   19.7610    8.0525   32.5388 C   0  0  0  0  0  0  0  0  0  0  0  0
   19.4157    9.3373   32.9151 C   0  0  0  0  0  0  0  0  0  0  0  0
   18.2588    9.4438   33.6763 N   0  0  0  0  0  0  0  0  0  0  0  0
   20.2113   10.4260   32.5218 C   0  0  0  0  0  0  0  0  0  0  0  0
   19.8989   11.8070   32.8723 C   0  0  0  0  0  0  0  0  0  0  0  0
   19.6587   12.9061   33.1464 N   0  0  0  0  0  0  0  0  0  0  0  0
   21.3873    6.6638   31.3301 N   0  0  0  0  0  0  0  0  0  0  0  0
   20.7487    5.5080   31.1215 C   0  0  0  0  0  0  0  0  0  0  0  0
   19.5319    5.3796   31.2433 O   0  0  0  0  0  0  0  0  0  0  0  0
   21.5762    4.2864   30.6944 C   0  0  0  0  0  0  0  0  0  0  0  0
   23.0915    4.4911   30.6827 C   0  0  0  0  0  0  0  0  0  0  0  0
   23.6888    5.3698   29.7694 C   0  0  0  0  0  0  0  0  0  0  0  0
   25.0671    5.5919   29.8016 C   0  0  0  0  0  0  0  0  0  0  0  0
   25.7101    6.5802   28.8490 C   0  0  0  0  0  0  0  0  0  0  0  0
   25.8566    4.9019   30.7231 C   0  0  0  0  0  0  0  0  0  0  0  0
   25.2705    4.0092   31.6200 C   0  0  0  0  0  0  0  0  0  0  0  0
   23.8912    3.8073   31.6026 C   0  0  0  0  0  0  0  0  0  0  0  0
   24.9462   12.0042   29.6556 H   0  0  0  0  0  0  0  0  0  0  0  0
   23.3849   12.8898   29.7228 H   0  0  0  0  0  0  0  0  0  0  0  0
   24.3501   12.6564   31.2196 H   0  0  0  0  0  0  0  0  0  0  0  0
   23.0094   10.4278   29.5809 H   0  0  0  0  0  0  0  0  0  0  0  0
   23.9746   10.1943   31.0777 H   0  0  0  0  0  0  0  0  0  0  0  0
   22.5169    8.7163   30.8467 H   0  0  0  0  0  0  0  0  0  0  0  0
   18.9135    7.6407   31.9712 H   0  0  0  0  0  0  0  0  0  0  0  0
   19.9021    7.4700   33.4612 H   0  0  0  0  0  0  0  0  0  0  0  0
   18.0538   10.3929   33.9154 H   0  0  0  0  0  0  0  0  0  0  0  0
   21.3504    3.4640   31.3892 H   0  0  0  0  0  0  0  0  0  0  0  0
   21.2642    4.0039   29.6781 H   0  0  0  0  0  0  0  0  0  0  0  0
   23.0799    5.8782   29.0365 H   0  0  0  0  0  0  0  0  0  0  0  0
   25.7251    7.5786   29.3106 H   0  0  0  0  0  0  0  0  0  0  0  0
   26.7402    6.2618   28.6307 H   0  0  0  0  0  0  0  0  0  0  0  0
   25.1319    6.6173   27.9140 H   0  0  0  0  0  0  0  0  0  0  0  0
   26.9248    5.0599   30.7415 H   0  0  0  0  0  0  0  0  0  0  0  0
   25.8854    3.4740   32.3284 H   0  0  0  0  0  0  0  0  0  0  0  0
   23.4391    3.1201   32.3024 H   0  0  0  0  0  0  0  0  0  0  0  0
  1  2  1  0  0  0  0
  2  3  1  0  0  0  0
  3  4  1  0  0  0  0
  4 10  2  0  0  0  0
  4  5  1  0  0  0  0
  5  6  1  0  0  0  0
  6  7  1  0  0  0  0
  6 13  2  0  0  0  0
  7  8  1  0  0  0  0
  8  9  2  0  0  0  0
  8 10  1  0  0  0  0
 10 11  1  0  0  0  0
 11 12  3  0  0  0  0
 13 14  1  0  0  0  0
 14 15  2  0  0  0  0
 14 16  1  0  0  0  0
 16 17  1  0  0  0  0
 17 23  2  0  0  0  0
 17 18  1  0  0  0  0
 18 19  2  0  0  0  0
 19 20  1  0  0  0  0
 19 21  1  0  0  0  0
 21 22  2  0  0  0  0
 22 23  1  0  0  0  0
  1 24  1  0  0  0  0
  1 25  1  0  0  0  0
  1 26  1  0  0  0  0
  2 27  1  0  0  0  0
  2 28  1  0  0  0  0
  5 29  1  0  0  0  0
  7 30  1  0  0  0  0
  7 31  1  0  0  0  0
  9 32  1  0  0  0  0
 16 33  1  0  0  0  0
 16 34  1  0  0  0  0
 18 35  1  0  0  0  0
 20 36  1  0  0  0  0
 20 37  1  0  0  0  0
 20 38  1  0  0  0  0
 21 39  1  0  0  0  0
 22 40  1  0  0  0  0
 23 41  1  0  0  0  0
M  END
> <i_m_stars>
0

> <r_user_dG.exp>
-8.67377

$$$$
18629-1
  -OEChem-05192314073D
 Structure written by MMmdl.
 41 42  0     1  0  0  0  0  0999 V2000
   24.0510   12.2016   30.2637 C   0  0  0  0  0  0  0  0  0  0  0  0
   23.3159   10.8864   30.5326 C   0  0  0  0  0  0  0  0  0  0  0  0
   22.1655   11.1828   31.3207 O   0  0  0  0  0  0  0  0  0  0  0  0
   21.3477   10.1523   31.7514 C   0  0  0  0  0  0  0  0  0  0  0  0
   21.6919    8.8874   31.3853 N   0  0  0  0  0  0  0  0  0  0  0  0
   20.8972    7.8767   31.7648 C   0  0  0  0  0  0  0  0  0  0  0  0
   19.7610    8.0525   32.5388 C   0  0  0  0  0  0  0  0  0  0  0  0
   19.4157    9.3373   32.9151 C   0  0  0  0  0  0  0  0  0  0  0  0
   18.2588    9.4438   33.6763 N   0  0  0  0  0  0  0  0  0  0  0  0
   20.2113   10.4260   32.5218 C   0  0  3  0  0  0  0  0  0  0  0  0
   19.8989   11.8070   32.8723 C   0  0  0  0  0  0  0  0  0  0  0  0
   19.6587   12.9061   33.1464 N   0  0  0  0  0  0  0  0  0  0  0  0
   21.3873    6.6638   31.3301 N   0  0  0  0  0  0  0  0  0  0  0  0
   20.7487    5.5080   31.1215 C   0  0  0  0  0  0  0  0  0  0  0  0
   19.5319    5.3796   31.2433 O   0  0  0  0  0  0  0  0  0  0  0  0
   21.5762    4.2864   30.6944 C   0  0  0  0  0  0  0  0  0  0  0  0
   23.0915    4.4911   30.6827 C   0  0  0  0  0  0  0  0  0  0  0  0
   23.6888    5.3698   29.7694 C   0  0  0  0  0  0  0  0  0  0  0  0
   25.0671    5.5919   29.8016 C   0  0  0  0  0  0  0  0  0  0  0  0
   25.7101    6.5802   28.8490 C   0  0  0  0  0  0  0  0  0  0  0  0
   25.8566    4.9019   30.7231 C   0  0  0  0  0  0  0  0  0  0  0  0
   25.2705    4.0092   31.6200 C   0  0  0  0  0  0  0  0  0  0  0  0
   23.8912    3.8073   31.6026 C   0  0  0  0  0  0  0  0  0  0  0  0
   24.9462   12.0042   29.6556 H   0  0  0  0  0  0  0  0  0  0  0  0
   23.3849   12.8898   29.7228 H   0  0  0  0  0  0  0  0  0  0  0  0
   24.3501   12.6564   31.2196 H   0  0  0  0  0  0  0  0  0  0  0  0
   23.0094   10.4278   29.5809 H   0  0  0  0  0  0  0  0  0  0  0  0
   23.9746   10.1943   31.0777 H   0  0  0  0  0  0  0  0  0  0  0  0
   19.1604    7.2071   32.8404 H   0  0  0  0  0  0  0  0  0  0  0  0
   18.0538   10.3929   33.9154 H   0  0  0  0  0  0  0  0  0  0  0  0
   20.8073   10.3253   33.4408 H   0  0  0  0  0  0  0  0  0  0  0  0
   19.2867    4.4824   31.0497 H   0  0  0  0  0  0  0  0  0  0  0  0
   21.3504    3.4640   31.3892 H   0  0  0  0  0  0  0  0  0  0  0  0
   21.2642    4.0039   29.6781 H   0  0  0  0  0  0  0  0  0  0  0  0
   23.0799    5.8782   29.0365 H   0  0  0  0  0  0  0  0  0  0  0  0
   25.7251    7.5786   29.3106 H   0  0  0  0  0  0  0  0  0  0  0  0
   26.7402    6.2618   28.6307 H   0  0  0  0  0  0  0  0  0  0  0  0
   25.1319    6.6173   27.9140 H   0  0  0  0  0  0  0  0  0  0  0  0
   26.9248    5.0599   30.7415 H   0  0  0  0  0  0  0  0  0  0  0  0
   25.8854    3.4740   32.3284 H   0  0  0  0  0  0  0  0  0  0  0  0
   23.4391    3.1201   32.3024 H   0  0  0  0  0  0  0  0  0  0  0  0
  1  2  1  0  0  0  0
  2  3  1  0  0  0  0
  3  4  1  0  0  0  0
  4 10  1  0  0  0  0
  4  5  2  0  0  0  0
  5  6  1  0  0  0  0
  6  7  2  0  0  0  0
  6 13  1  0  0  0  0
  7  8  1  0  0  0  0
  8  9  2  0  0  0  0
  8 10  1  0  0  0  0
 10 11  1  0  0  0  0
 11 12  3  0  0  0  0
 13 14  2  0  0  0  0
 14 15  1  0  0  0  0
 14 16  1  0  0  0  0
 16 17  1  0  0  0  0
 17 23  2  0  0  0  0
 17 18  1  0  0  0  0
 18 19  2  0  0  0  0
 19 20  1  0  0  0  0
 19 21  1  0  0  0  0
 21 22  2  0  0  0  0
 22 23  1  0  0  0  0
  1 24  1  0  0  0  0
  1 25  1  0  0  0  0
  1 26  1  0  0  0  0
  2 27  1  0  0  0  0
  2 28  1  0  0  0  0
  7 29  1  0  0  0  0
  9 30  1  0  0  0  0
 10 31  1  0  0  0  0
 15 32  1  0  0  0  0
 16 33  1  0  0  0  0
 16 34  1  0  0  0  0
 18 35  1  0  0  0  0
 20 36  1  0  0  0  0
 20 37  1  0  0  0  0
 20 38  1  0  0  0  0
 21 39  1  0  0  0  0
 22 40  1  0  0  0  0
 23 41  1  0  0  0  0
M  END
> <i_m_stars>
0

> <r_user_dG.exp>
-8.67377

$$$$
18629-1
  -OEChem-05192314073D
 Structure written by MMmdl.
 41 42  0     0  0  0  0  0  0999 V2000
   24.0510   12.2016   30.2637 C   0  0  0  0  0  0  0  0  0  0  0  0
   23.3159   10.8864   30.5326 C   0  0  0  0  0  0  0  0  0  0  0  0
   22.1655   11.1828   31.3207 O   0  0  0  0  0  0  0  0  0  0  0  0
   21.3477   10.1523   31.7514 C   0  0  0  0  0  0  0  0  0  0  0  0
   21.6919    8.8874   31.3853 N   0  0  0  0  0  0  0  0  0  0  0  0
   20.8972    7.8767   31.7648 C   0  0  0  0  0  0  0  0  0  0  0  0
   19.7610    8.0525   32.5388 C   0  0  0  0  0  0  0  0  0  0  0  0
   19.4157    9.3373   32.9151 C   0  0  0  0  0  0  0  0  0  0  0  0
   18.2588    9.4438   33.6763 N   0  0  0  0  0  0  0  0  0  0  0  0
   20.2113   10.4260   32.5218 C   0  0  0  0  0  0  0  0  0  0  0  0
   19.8989   11.8070   32.8723 C   0  0  0  0  0  0  0  0  0  0  0  0
   19.6587   12.9061   33.1464 N   0  0  0  0  0  0  0  0  0  0  0  0
   21.3873    6.6638   31.3301 N   0  0  0  0  0  0  0  0  0  0  0  0
   20.7487    5.5080   31.1215 C   0  0  0  0  0  0  0  0  0  0  0  0
   19.5319    5.3796   31.2433 O   0  0  0  0  0  0  0  0  0  0  0  0
   21.5762    4.2864   30.6944 C   0  0  0  0  0  0  0  0  0  0  0  0
   23.0915    4.4911   30.6827 C   0  0  0  0  0  0  0  0  0  0  0  0
   23.6888    5.3698   29.7694 C   0  0  0  0  0  0  0  0  0  0  0  0
   25.0671    5.5919   29.8016 C   0  0  0  0  0  0  0  0  0  0  0  0
   25.7101    6.5802   28.8490 C   0  0  0  0  0  0  0  0  0  0  0  0
   25.8566    4.9019   30.7231 C   0  0  0  0  0  0  0  0  0  0  0  0
   25.2705    4.0092   31.6200 C   0  0  0  0  0  0  0  0  0  0  0  0
   23.8912    3.8073   31.6026 C   0  0  0  0  0  0  0  0  0  0  0  0
   24.9462   12.0042   29.6556 H   0  0  0  0  0  0  0  0  0  0  0  0
   23.3849   12.8898   29.7228 H   0  0  0  0  0  0  0  0  0  0  0  0
   24.3501   12.6564   31.2196 H   0  0  0  0  0  0  0  0  0  0  0  0
   23.0094   10.4278   29.5809 H   0  0  0  0  0  0  0  0  0  0  0  0
   23.9746   10.1943   31.0777 H   0  0  0  0  0  0  0  0  0  0  0  0
   18.9135    7.6407   31.9712 H   0  0  0  0  0  0  0  0  0  0  0  0
   19.9021    7.4700   33.4612 H   0  0  0  0  0  0  0  0  0  0  0  0
   18.0538   10.3929   33.9154 H   0  0  0  0  0  0  0  0  0  0  0  0
   19.2867    4.4824   31.0497 H   0  0  0  0  0  0  0  0  0  0  0  0
   21.3504    3.4640   31.3892 H   0  0  0  0  0  0  0  0  0  0  0  0
   21.2642    4.0039   29.6781 H   0  0  0  0  0  0  0  0  0  0  0  0
   23.0799    5.8782   29.0365 H   0  0  0  0  0  0  0  0  0  0  0  0
   25.7251    7.5786   29.3106 H   0  0  0  0  0  0  0  0  0  0  0  0
   26.7402    6.2618   28.6307 H   0  0  0  0  0  0  0  0  0  0  0  0
   25.1319    6.6173   27.9140 H   0  0  0  0  0  0  0  0  0  0  0  0
   26.9248    5.0599   30.7415 H   0  0  0  0  0  0  0  0  0  0  0  0
   25.8854    3.4740   32.3284 H   0  0  0  0  0  0  0  0  0  0  0  0
   23.4391    3.1201   32.3024 H   0  0  0  0  0  0  0  0  0  0  0  0
  1  2  1  0  0  0  0
  2  3  1  0  0  0  0
  3  4  1  0  0  0  0
  4 10  2  0  0  0  0
  4  5  1  0  0  0  0
  5  6  2  0  0  0  0
  6  7  1  0  0  0  0
  6 13  1  0  0  0  0
  7  8  1  0  0  0  0
  8  9  2  0  0  0  0
  8 10  1  0  0  0  0
 10 11  1  0  0  0  0
 11 12  3  0  0  0  0
 13 14  2  0  0  0  0
 14 15  1  0  0  0  0
 14 16  1  0  0  0  0
 16 17  1  0  0  0  0
 17 23  2  0  0  0  0
 17 18  1  0  0  0  0
 18 19  2  0  0  0  0
 19 20  1  0  0  0  0
 19 21  1  0  0  0  0
 21 22  2  0  0  0  0
 22 23  1  0  0  0  0
  1 24  1  0  0  0  0
  1 25  1  0  0  0  0
  1 26  1  0  0  0  0
  2 27  1  0  0  0  0
  2 28  1  0  0  0  0
  7 29  1  0  0  0  0
  7 30  1  0  0  0  0
  9 31  1  0  0  0  0
 15 32  1  0  0  0  0
 16 33  1  0  0  0  0
 16 34  1  0  0  0  0
 18 35  1  0  0  0  0
 20 36  1  0  0  0  0
 20 37  1  0  0  0  0
 20 38  1  0  0  0  0
 21 39  1  0  0  0  0
 22 40  1  0  0  0  0
 23 41  1  0  0  0  0
M  END
> <i_m_stars>
0

> <r_user_dG.exp>
-8.67377

$$$$
