18637-1
  -OEChem-05192314073D
 Structure written by MMmdl.
 53 54  0     0  0  0  0  0  0999 V2000
   24.0679   12.3974   30.2299 C   0  0  0  0  0  0  0  0  0  0  0  0
   23.3159   11.0783   30.4227 C   0  0  0  0  0  0  0  0  0  0  0  0
   22.2074   11.3318   31.2810 O   0  0  0  0  0  0  0  0  0  0  0  0
   21.4078   10.2815   31.6977 C   0  0  0  0  0  0  0  0  0  0  0  0
   21.7477    9.0318   31.2791 N   0  0  0  0  0  0  0  0  0  0  0  0
   20.9736    8.0017   31.6536 C   0  0  0  0  0  0  0  0  0  0  0  0
   19.8665    8.1461   32.4779 C   0  0  0  0  0  0  0  0  0  0  0  0
   19.5200    9.4177   32.8981 C   0  0  0  0  0  0  0  0  0  0  0  0
   18.3829    9.4988   33.6931 N   0  0  0  0  0  0  0  0  0  0  0  0
   20.2909   10.5235   32.5051 C   0  0  0  0  0  0  0  0  0  0  0  0
   19.9670   11.8935   32.8853 C   0  0  0  0  0  0  0  0  0  0  0  0
   19.7174   12.9843   33.1812 N   0  0  0  0  0  0  0  0  0  0  0  0
   21.4331    6.8194   31.1098 N   0  0  0  0  0  0  0  0  0  0  0  0
   20.8527    5.6189   31.0281 C   0  0  0  0  0  0  0  0  0  0  0  0
   19.7272    5.3573   31.4476 O   0  0  0  0  0  0  0  0  0  0  0  0
   21.6390    4.5479   30.2799 C   0  0  0  0  0  0  0  0  0  0  0  0
   23.0290    4.2861   30.8549 C   0  0  0  0  0  0  0  0  0  0  0  0
   24.1071    5.1197   30.5266 C   0  0  0  0  0  0  0  0  0  0  0  0
   23.8494    6.2028   29.7043 O   0  0  0  0  0  0  0  0  0  0  0  0
   24.8536    7.1989   29.5184 C   0  0  0  0  0  0  0  0  0  0  0  0
   25.3718    4.8226   31.0461 C   0  0  0  0  0  0  0  0  0  0  0  0
   25.5645    3.7381   31.9139 C   0  0  0  0  0  0  0  0  0  0  0  0
   24.4775    2.9179   32.2550 C   0  0  0  0  0  0  0  0  0  0  0  0
   23.2164    3.1999   31.7130 C   0  0  0  0  0  0  0  0  0  0  0  0
   24.7079    1.8722   33.1347 O   0  0  0  0  0  0  0  0  0  0  0  0
   23.7954    0.7759   33.1653 C   0  0  0  0  0  0  0  0  0  0  0  0
   26.8105    3.4129   32.4986 N   0  0  0  0  0  0  0  0  0  0  0  0
   28.0304    3.9580   32.3626 C   0  0  0  0  0  0  0  0  0  0  0  0
   28.3090    4.8809   31.6038 O   0  0  0  0  0  0  0  0  0  0  0  0
   29.1268    3.3864   33.2444 C   0  0  0  0  0  0  0  0  0  0  0  0
   24.9324   12.2341   29.5696 H   0  0  0  0  0  0  0  0  0  0  0  0
   23.3951   13.1399   29.7761 H   0  0  0  0  0  0  0  0  0  0  0  0
   24.4166   12.7665   31.2057 H   0  0  0  0  0  0  0  0  0  0  0  0
   22.9596   10.7050   29.4513 H   0  0  0  0  0  0  0  0  0  0  0  0
   23.9811   10.3316   30.8809 H   0  0  0  0  0  0  0  0  0  0  0  0
   19.2892    7.2862   32.7840 H   0  0  0  0  0  0  0  0  0  0  0  0
   18.2177   10.4529   33.9431 H   0  0  0  0  0  0  0  0  0  0  0  0
   17.5962    9.1461   33.1864 H   0  0  0  0  0  0  0  0  0  0  0  0
   22.3494    6.8695   30.7124 H   0  0  0  0  0  0  0  0  0  0  0  0
   21.0667    3.6092   30.3162 H   0  0  0  0  0  0  0  0  0  0  0  0
   21.7517    4.8684   29.2337 H   0  0  0  0  0  0  0  0  0  0  0  0
   24.4769    7.9778   28.8391 H   0  0  0  0  0  0  0  0  0  0  0  0
   25.1064    7.6502   30.4892 H   0  0  0  0  0  0  0  0  0  0  0  0
   25.7522    6.7368   29.0837 H   0  0  0  0  0  0  0  0  0  0  0  0
   26.2151    5.4399   30.7737 H   0  0  0  0  0  0  0  0  0  0  0  0
   22.3768    2.5680   31.9624 H   0  0  0  0  0  0  0  0  0  0  0  0
   24.1278    0.0422   33.9145 H   0  0  0  0  0  0  0  0  0  0  0  0
   22.7922    1.1413   33.4301 H   0  0  0  0  0  0  0  0  0  0  0  0
   23.7622    0.2989   32.1747 H   0  0  0  0  0  0  0  0  0  0  0  0
   26.7772    2.6361   33.1274 H   0  0  0  0  0  0  0  0  0  0  0  0
   30.0677    3.9238   33.0552 H   0  0  0  0  0  0  0  0  0  0  0  0
   28.8447    3.5020   34.3013 H   0  0  0  0  0  0  0  0  0  0  0  0
   29.2620    2.3190   33.0156 H   0  0  0  0  0  0  0  0  0  0  0  0
  1  2  1  0  0  0  0
  2  3  1  0  0  0  0
  3  4  1  0  0  0  0
  4 10  2  0  0  0  0
  4  5  1  0  0  0  0
  5  6  2  0  0  0  0
  6  7  1  0  0  0  0
  6 13  1  0  0  0  0
  7  8  2  0  0  0  0
  8  9  1  0  0  0  0
  8 10  1  0  0  0  0
 10 11  1  0  0  0  0
 11 12  3  0  0  0  0
 13 14  1  0  0  0  0
 14 15  2  0  0  0  0
 14 16  1  0  0  0  0
 16 17  1  0  0  0  0
 17 24  2  0  0  0  0
 17 18  1  0  0  0  0
 18 19  1  0  0  0  0
 18 21  2  0  0  0  0
 19 20  1  0  0  0  0
 21 22  1  0  0  0  0
 22 23  2  0  0  0  0
 22 27  1  0  0  0  0
 23 24  1  0  0  0  0
 23 25  1  0  0  0  0
 25 26  1  0  0  0  0
 27 28  1  0  0  0  0
 28 29  2  0  0  0  0
 28 30  1  0  0  0  0
  1 31  1  0  0  0  0
  1 32  1  0  0  0  0
  1 33  1  0  0  0  0
  2 34  1  0  0  0  0
  2 35  1  0  0  0  0
  7 36  1  0  0  0  0
  9 37  1  0  0  0  0
  9 38  1  0  0  0  0
 13 39  1  0  0  0  0
 16 40  1  0  0  0  0
 16 41  1  0  0  0  0
 20 42  1  0  0  0  0
 20 43  1  0  0  0  0
 20 44  1  0  0  0  0
 21 45  1  0  0  0  0
 24 46  1  0  0  0  0
 26 47  1  0  0  0  0
 26 48  1  0  0  0  0
 26 49  1  0  0  0  0
 27 50  1  0  0  0  0
 30 51  1  0  0  0  0
 30 52  1  0  0  0  0
 30 53  1  0  0  0  0
M  END
> <i_m_stars>
0

> <r_user_dG.exp>
-10.141692

$$$$
18637-1
  -OEChem-05192314073D
 Structure written by MMmdl.
 53 54  0     0  0  0  0  0  0999 V2000
   24.0679   12.3974   30.2299 C   0  0  0  0  0  0  0  0  0  0  0  0
   23.3159   11.0783   30.4227 C   0  0  0  0  0  0  0  0  0  0  0  0
   22.2074   11.3318   31.2810 O   0  0  0  0  0  0  0  0  0  0  0  0
   21.4078   10.2815   31.6977 C   0  0  0  0  0  0  0  0  0  0  0  0
   21.7477    9.0318   31.2791 N   0  0  0  0  0  0  0  0  0  0  0  0
   20.9736    8.0017   31.6536 C   0  0  0  0  0  0  0  0  0  0  0  0
   19.8665    8.1461   32.4779 C   0  0  0  0  0  0  0  0  0  0  0  0
   19.5200    9.4177   32.8981 C   0  0  0  0  0  0  0  0  0  0  0  0
   18.3829    9.4988   33.6931 N   0  0  0  0  0  0  0  0  0  0  0  0
   20.2909   10.5235   32.5051 C   0  0  0  0  0  0  0  0  0  0  0  0
   19.9670   11.8935   32.8853 C   0  0  0  0  0  0  0  0  0  0  0  0
   19.7174   12.9843   33.1812 N   0  0  0  0  0  0  0  0  0  0  0  0
   21.4331    6.8194   31.1098 N   0  0  0  0  0  0  0  0  0  0  0  0
   20.8527    5.6189   31.0281 C   0  0  0  0  0  0  0  0  0  0  0  0
   19.7272    5.3573   31.4476 O   0  0  0  0  0  0  0  0  0  0  0  0
   21.6390    4.5479   30.2799 C   0  0  0  0  0  0  0  0  0  0  0  0
   23.0290    4.2861   30.8549 C   0  0  0  0  0  0  0  0  0  0  0  0
   24.1071    5.1197   30.5266 C   0  0  0  0  0  0  0  0  0  0  0  0
   23.8494    6.2028   29.7043 O   0  0  0  0  0  0  0  0  0  0  0  0
   24.8536    7.1989   29.5184 C   0  0  0  0  0  0  0  0  0  0  0  0
   25.3718    4.8226   31.0461 C   0  0  0  0  0  0  0  0  0  0  0  0
   25.5645    3.7381   31.9139 C   0  0  0  0  0  0  0  0  0  0  0  0
   24.4775    2.9179   32.2550 C   0  0  0  0  0  0  0  0  0  0  0  0
   23.2164    3.1999   31.7130 C   0  0  0  0  0  0  0  0  0  0  0  0
   24.7079    1.8722   33.1347 O   0  0  0  0  0  0  0  0  0  0  0  0
   23.7954    0.7759   33.1653 C   0  0  0  0  0  0  0  0  0  0  0  0
   26.8105    3.4129   32.4986 N   0  0  0  0  0  0  0  0  0  0  0  0
   28.0304    3.9580   32.3626 C   0  0  0  0  0  0  0  0  0  0  0  0
   28.3090    4.8809   31.6038 O   0  0  0  0  0  0  0  0  0  0  0  0
   29.1268    3.3864   33.2444 C   0  0  0  0  0  0  0  0  0  0  0  0
   24.9324   12.2341   29.5696 H   0  0  0  0  0  0  0  0  0  0  0  0
   23.3951   13.1399   29.7761 H   0  0  0  0  0  0  0  0  0  0  0  0
   24.4166   12.7665   31.2057 H   0  0  0  0  0  0  0  0  0  0  0  0
   22.9596   10.7050   29.4513 H   0  0  0  0  0  0  0  0  0  0  0  0
   23.9811   10.3316   30.8809 H   0  0  0  0  0  0  0  0  0  0  0  0
   19.2892    7.2862   32.7840 H   0  0  0  0  0  0  0  0  0  0  0  0
   18.2177   10.4529   33.9431 H   0  0  0  0  0  0  0  0  0  0  0  0
   17.5962    9.1461   33.1864 H   0  0  0  0  0  0  0  0  0  0  0  0
   22.3494    6.8695   30.7124 H   0  0  0  0  0  0  0  0  0  0  0  0
   21.0667    3.6092   30.3162 H   0  0  0  0  0  0  0  0  0  0  0  0
   21.7517    4.8684   29.2337 H   0  0  0  0  0  0  0  0  0  0  0  0
   24.4769    7.9778   28.8391 H   0  0  0  0  0  0  0  0  0  0  0  0
   25.1064    7.6502   30.4892 H   0  0  0  0  0  0  0  0  0  0  0  0
   25.7522    6.7368   29.0837 H   0  0  0  0  0  0  0  0  0  0  0  0
   26.2151    5.4399   30.7737 H   0  0  0  0  0  0  0  0  0  0  0  0
   22.3768    2.5680   31.9624 H   0  0  0  0  0  0  0  0  0  0  0  0
   24.1278    0.0422   33.9145 H   0  0  0  0  0  0  0  0  0  0  0  0
   22.7922    1.1413   33.4301 H   0  0  0  0  0  0  0  0  0  0  0  0
   23.7622    0.2989   32.1747 H   0  0  0  0  0  0  0  0  0  0  0  0
   29.2319    5.0909   31.6854 H   0  0  0  0  0  0  0  0  0  0  0  0
   30.0720    3.9114   33.0419 H   0  0  0  0  0  0  0  0  0  0  0  0
   28.8532    3.5187   34.3016 H   0  0  0  0  0  0  0  0  0  0  0  0
   29.2493    2.3147   33.0287 H   0  0  0  0  0  0  0  0  0  0  0  0
  1  2  1  0  0  0  0
  2  3  1  0  0  0  0
  3  4  1  0  0  0  0
  4 10  2  0  0  0  0
  4  5  1  0  0  0  0
  5  6  2  0  0  0  0
  6  7  1  0  0  0  0
  6 13  1  0  0  0  0
  7  8  2  0  0  0  0
  8  9  1  0  0  0  0
  8 10  1  0  0  0  0
 10 11  1  0  0  0  0
 11 12  3  0  0  0  0
 13 14  1  0  0  0  0
 14 15  2  0  0  0  0
 14 16  1  0  0  0  0
 16 17  1  0  0  0  0
 17 24  2  0  0  0  0
 17 18  1  0  0  0  0
 18 19  1  0  0  0  0
 18 21  2  0  0  0  0
 19 20  1  0  0  0  0
 21 22  1  0  0  0  0
 22 23  2  0  0  0  0
 22 27  1  0  0  0  0
 23 24  1  0  0  0  0
 23 25  1  0  0  0  0
 25 26  1  0  0  0  0
 27 28  2  0  0  0  0
 28 29  1  0  0  0  0
 28 30  1  0  0  0  0
  1 31  1  0  0  0  0
  1 32  1  0  0  0  0
  1 33  1  0  0  0  0
  2 34  1  0  0  0  0
  2 35  1  0  0  0  0
  7 36  1  0  0  0  0
  9 37  1  0  0  0  0
  9 38  1  0  0  0  0
 13 39  1  0  0  0  0
 16 40  1  0  0  0  0
 16 41  1  0  0  0  0
 20 42  1  0  0  0  0
 20 43  1  0  0  0  0
 20 44  1  0  0  0  0
 21 45  1  0  0  0  0
 24 46  1  0  0  0  0
 26 47  1  0  0  0  0
 26 48  1  0  0  0  0
 26 49  1  0  0  0  0
 29 50  1  0  0  0  0
 30 51  1  0  0  0  0
 30 52  1  0  0  0  0
 30 53  1  0  0  0  0
M  END
> <i_m_stars>
0

> <r_user_dG.exp>
-10.141692

$$$$
18637-1
  -OEChem-05192314073D
 Structure written by MMmdl.
 53 54  0     0  0  0  0  0  0999 V2000
   24.0679   12.3974   30.2299 C   0  0  0  0  0  0  0  0  0  0  0  0
   23.3159   11.0783   30.4227 C   0  0  0  0  0  0  0  0  0  0  0  0
   22.2074   11.3318   31.2810 O   0  0  0  0  0  0  0  0  0  0  0  0
   21.4078   10.2815   31.6977 C   0  0  0  0  0  0  0  0  0  0  0  0
   21.7477    9.0318   31.2791 N   0  0  0  0  0  0  0  0  0  0  0  0
   20.9736    8.0017   31.6536 C   0  0  0  0  0  0  0  0  0  0  0  0
   19.8665    8.1461   32.4779 C   0  0  0  0  0  0  0  0  0  0  0  0
   19.5200    9.4177   32.8981 C   0  0  0  0  0  0  0  0  0  0  0  0
   18.3829    9.4988   33.6931 N   0  0  0  0  0  0  0  0  0  0  0  0
   20.2909   10.5235   32.5051 C   0  0  0  0  0  0  0  0  0  0  0  0
   19.9670   11.8935   32.8853 C   0  0  0  0  0  0  0  0  0  0  0  0
   19.7174   12.9843   33.1812 N   0  0  0  0  0  0  0  0  0  0  0  0
   21.4331    6.8194   31.1098 N   0  0  0  0  0  0  0  0  0  0  0  0
   20.8527    5.6189   31.0281 C   0  0  0  0  0  0  0  0  0  0  0  0
   19.7272    5.3573   31.4476 O   0  0  0  0  0  0  0  0  0  0  0  0
   21.6390    4.5479   30.2799 C   0  0  0  0  0  0  0  0  0  0  0  0
   23.0290    4.2861   30.8549 C   0  0  0  0  0  0  0  0  0  0  0  0
   24.1071    5.1197   30.5266 C   0  0  0  0  0  0  0  0  0  0  0  0
   23.8494    6.2028   29.7043 O   0  0  0  0  0  0  0  0  0  0  0  0
   24.8536    7.1989   29.5184 C   0  0  0  0  0  0  0  0  0  0  0  0
   25.3718    4.8226   31.0461 C   0  0  0  0  0  0  0  0  0  0  0  0
   25.5645    3.7381   31.9139 C   0  0  0  0  0  0  0  0  0  0  0  0
   24.4775    2.9179   32.2550 C   0  0  0  0  0  0  0  0  0  0  0  0
   23.2164    3.1999   31.7130 C   0  0  0  0  0  0  0  0  0  0  0  0
   24.7079    1.8722   33.1347 O   0  0  0  0  0  0  0  0  0  0  0  0
   23.7954    0.7759   33.1653 C   0  0  0  0  0  0  0  0  0  0  0  0
   26.8105    3.4129   32.4986 N   0  0  0  0  0  0  0  0  0  0  0  0
   28.0304    3.9580   32.3626 C   0  0  0  0  0  0  0  0  0  0  0  0
   28.3090    4.8809   31.6038 O   0  0  0  0  0  0  0  0  0  0  0  0
   29.1268    3.3864   33.2444 C   0  0  0  0  0  0  0  0  0  0  0  0
   24.9324   12.2341   29.5696 H   0  0  0  0  0  0  0  0  0  0  0  0
   23.3951   13.1399   29.7761 H   0  0  0  0  0  0  0  0  0  0  0  0
   24.4166   12.7665   31.2057 H   0  0  0  0  0  0  0  0  0  0  0  0
   22.9596   10.7050   29.4513 H   0  0  0  0  0  0  0  0  0  0  0  0
   23.9811   10.3316   30.8809 H   0  0  0  0  0  0  0  0  0  0  0  0
   19.2892    7.2862   32.7840 H   0  0  0  0  0  0  0  0  0  0  0  0
   18.2177   10.4529   33.9431 H   0  0  0  0  0  0  0  0  0  0  0  0
   17.5962    9.1461   33.1864 H   0  0  0  0  0  0  0  0  0  0  0  0
   19.5301    4.4435   31.2783 H   0  0  0  0  0  0  0  0  0  0  0  0
   21.0667    3.6092   30.3162 H   0  0  0  0  0  0  0  0  0  0  0  0
   21.7517    4.8684   29.2337 H   0  0  0  0  0  0  0  0  0  0  0  0
   24.4769    7.9778   28.8391 H   0  0  0  0  0  0  0  0  0  0  0  0
   25.1064    7.6502   30.4892 H   0  0  0  0  0  0  0  0  0  0  0  0
   25.7522    6.7368   29.0837 H   0  0  0  0  0  0  0  0  0  0  0  0
   26.2151    5.4399   30.7737 H   0  0  0  0  0  0  0  0  0  0  0  0
   22.3768    2.5680   31.9624 H   0  0  0  0  0  0  0  0  0  0  0  0
   24.1278    0.0422   33.9145 H   0  0  0  0  0  0  0  0  0  0  0  0
   22.7922    1.1413   33.4301 H   0  0  0  0  0  0  0  0  0  0  0  0
   23.7622    0.2989   32.1747 H   0  0  0  0  0  0  0  0  0  0  0  0
   26.7772    2.6361   33.1274 H   0  0  0  0  0  0  0  0  0  0  0  0
   30.0677    3.9238   33.0552 H   0  0  0  0  0  0  0  0  0  0  0  0
   28.8447    3.5020   34.3013 H   0  0  0  0  0  0  0  0  0  0  0  0
   29.2620    2.3190   33.0156 H   0  0  0  0  0  0  0  0  0  0  0  0
  1  2  1  0  0  0  0
  2  3  1  0  0  0  0
  3  4  1  0  0  0  0
  4 10  2  0  0  0  0
  4  5  1  0  0  0  0
  5  6  2  0  0  0  0
  6  7  1  0  0  0  0
  6 13  1  0  0  0  0
  7  8  2  0  0  0  0
  8  9  1  0  0  0  0
  8 10  1  0  0  0  0
 10 11  1  0  0  0  0
 11 12  3  0  0  0  0
 13 14  2  0  0  0  0
 14 15  1  0  0  0  0
 14 16  1  0  0  0  0
 16 17  1  0  0  0  0
 17 24  2  0  0  0  0
 17 18  1  0  0  0  0
 18 19  1  0  0  0  0
 18 21  2  0  0  0  0
 19 20  1  0  0  0  0
 21 22  1  0  0  0  0
 22 23  2  0  0  0  0
 22 27  1  0  0  0  0
 23 24  1  0  0  0  0
 23 25  1  0  0  0  0
 25 26  1  0  0  0  0
 27 28  1  0  0  0  0
 28 29  2  0  0  0  0
 28 30  1  0  0  0  0
  1 31  1  0  0  0  0
  1 32  1  0  0  0  0
  1 33  1  0  0  0  0
  2 34  1  0  0  0  0
  2 35  1  0  0  0  0
  7 36  1  0  0  0  0
  9 37  1  0  0  0  0
  9 38  1  0  0  0  0
 15 39  1  0  0  0  0
 16 40  1  0  0  0  0
 16 41  1  0  0  0  0
 20 42  1  0  0  0  0
 20 43  1  0  0  0  0
 20 44  1  0  0  0  0
 21 45  1  0  0  0  0
 24 46  1  0  0  0  0
 26 47  1  0  0  0  0
 26 48  1  0  0  0  0
 26 49  1  0  0  0  0
 27 50  1  0  0  0  0
 30 51  1  0  0  0  0
 30 52  1  0  0  0  0
 30 53  1  0  0  0  0
M  END
> <i_m_stars>
0

> <r_user_dG.exp>
-10.141692

$$$$
18637-1
  -OEChem-05192314073D
 Structure written by MMmdl.
 53 54  0     0  0  0  0  0  0999 V2000
   24.0679   12.3974   30.2299 C   0  0  0  0  0  0  0  0  0  0  0  0
   23.3159   11.0783   30.4227 C   0  0  0  0  0  0  0  0  0  0  0  0
   22.2074   11.3318   31.2810 O   0  0  0  0  0  0  0  0  0  0  0  0
   21.4078   10.2815   31.6977 C   0  0  0  0  0  0  0  0  0  0  0  0
   21.7477    9.0318   31.2791 N   0  0  0  0  0  0  0  0  0  0  0  0
   20.9736    8.0017   31.6536 C   0  0  0  0  0  0  0  0  0  0  0  0
   19.8665    8.1461   32.4779 C   0  0  0  0  0  0  0  0  0  0  0  0
   19.5200    9.4177   32.8981 C   0  0  0  0  0  0  0  0  0  0  0  0
   18.3829    9.4988   33.6931 N   0  0  0  0  0  0  0  0  0  0  0  0
   20.2909   10.5235   32.5051 C   0  0  0  0  0  0  0  0  0  0  0  0
   19.9670   11.8935   32.8853 C   0  0  0  0  0  0  0  0  0  0  0  0
   19.7174   12.9843   33.1812 N   0  0  0  0  0  0  0  0  0  0  0  0
   21.4331    6.8194   31.1098 N   0  0  0  0  0  0  0  0  0  0  0  0
   20.8527    5.6189   31.0281 C   0  0  0  0  0  0  0  0  0  0  0  0
   19.7272    5.3573   31.4476 O   0  0  0  0  0  0  0  0  0  0  0  0
   21.6390    4.5479   30.2799 C   0  0  0  0  0  0  0  0  0  0  0  0
   23.0290    4.2861   30.8549 C   0  0  0  0  0  0  0  0  0  0  0  0
   24.1071    5.1197   30.5266 C   0  0  0  0  0  0  0  0  0  0  0  0
   23.8494    6.2028   29.7043 O   0  0  0  0  0  0  0  0  0  0  0  0
   24.8536    7.1989   29.5184 C   0  0  0  0  0  0  0  0  0  0  0  0
   25.3718    4.8226   31.0461 C   0  0  0  0  0  0  0  0  0  0  0  0
   25.5645    3.7381   31.9139 C   0  0  0  0  0  0  0  0  0  0  0  0
   24.4775    2.9179   32.2550 C   0  0  0  0  0  0  0  0  0  0  0  0
   23.2164    3.1999   31.7130 C   0  0  0  0  0  0  0  0  0  0  0  0
   24.7079    1.8722   33.1347 O   0  0  0  0  0  0  0  0  0  0  0  0
   23.7954    0.7759   33.1653 C   0  0  0  0  0  0  0  0  0  0  0  0
   26.8105    3.4129   32.4986 N   0  0  0  0  0  0  0  0  0  0  0  0
   28.0304    3.9580   32.3626 C   0  0  0  0  0  0  0  0  0  0  0  0
   28.3090    4.8809   31.6038 O   0  0  0  0  0  0  0  0  0  0  0  0
   29.1268    3.3864   33.2444 C   0  0  0  0  0  0  0  0  0  0  0  0
   24.9324   12.2341   29.5696 H   0  0  0  0  0  0  0  0  0  0  0  0
   23.3951   13.1399   29.7761 H   0  0  0  0  0  0  0  0  0  0  0  0
   24.4166   12.7665   31.2057 H   0  0  0  0  0  0  0  0  0  0  0  0
   22.9596   10.7050   29.4513 H   0  0  0  0  0  0  0  0  0  0  0  0
   23.9811   10.3316   30.8809 H   0  0  0  0  0  0  0  0  0  0  0  0
   19.2892    7.2862   32.7840 H   0  0  0  0  0  0  0  0  0  0  0  0
   18.2177   10.4529   33.9431 H   0  0  0  0  0  0  0  0  0  0  0  0
   17.5962    9.1461   33.1864 H   0  0  0  0  0  0  0  0  0  0  0  0
   19.5301    4.4435   31.2783 H   0  0  0  0  0  0  0  0  0  0  0  0
   21.0667    3.6092   30.3162 H   0  0  0  0  0  0  0  0  0  0  0  0
   21.7517    4.8684   29.2337 H   0  0  0  0  0  0  0  0  0  0  0  0
   24.4769    7.9778   28.8391 H   0  0  0  0  0  0  0  0  0  0  0  0
   25.1064    7.6502   30.4892 H   0  0  0  0  0  0  0  0  0  0  0  0
   25.7522    6.7368   29.0837 H   0  0  0  0  0  0  0  0  0  0  0  0
   26.2151    5.4399   30.7737 H   0  0  0  0  0  0  0  0  0  0  0  0
   22.3768    2.5680   31.9624 H   0  0  0  0  0  0  0  0  0  0  0  0
   24.1278    0.0422   33.9145 H   0  0  0  0  0  0  0  0  0  0  0  0
   22.7922    1.1413   33.4301 H   0  0  0  0  0  0  0  0  0  0  0  0
   23.7622    0.2989   32.1747 H   0  0  0  0  0  0  0  0  0  0  0  0
   29.2319    5.0909   31.6854 H   0  0  0  0  0  0  0  0  0  0  0  0
   30.0720    3.9114   33.0419 H   0  0  0  0  0  0  0  0  0  0  0  0
   28.8532    3.5187   34.3016 H   0  0  0  0  0  0  0  0  0  0  0  0
   29.2493    2.3147   33.0287 H   0  0  0  0  0  0  0  0  0  0  0  0
  1  2  1  0  0  0  0
  2  3  1  0  0  0  0
  3  4  1  0  0  0  0
  4 10  2  0  0  0  0
  4  5  1  0  0  0  0
  5  6  2  0  0  0  0
  6  7  1  0  0  0  0
  6 13  1  0  0  0  0
  7  8  2  0  0  0  0
  8  9  1  0  0  0  0
  8 10  1  0  0  0  0
 10 11  1  0  0  0  0
 11 12  3  0  0  0  0
 13 14  2  0  0  0  0
 14 15  1  0  0  0  0
 14 16  1  0  0  0  0
 16 17  1  0  0  0  0
 17 24  2  0  0  0  0
 17 18  1  0  0  0  0
 18 19  1  0  0  0  0
 18 21  2  0  0  0  0
 19 20  1  0  0  0  0
 21 22  1  0  0  0  0
 22 23  2  0  0  0  0
 22 27  1  0  0  0  0
 23 24  1  0  0  0  0
 23 25  1  0  0  0  0
 25 26  1  0  0  0  0
 27 28  2  0  0  0  0
 28 29  1  0  0  0  0
 28 30  1  0  0  0  0
  1 31  1  0  0  0  0
  1 32  1  0  0  0  0
  1 33  1  0  0  0  0
  2 34  1  0  0  0  0
  2 35  1  0  0  0  0
  7 36  1  0  0  0  0
  9 37  1  0  0  0  0
  9 38  1  0  0  0  0
 15 39  1  0  0  0  0
 16 40  1  0  0  0  0
 16 41  1  0  0  0  0
 20 42  1  0  0  0  0
 20 43  1  0  0  0  0
 20 44  1  0  0  0  0
 21 45  1  0  0  0  0
 24 46  1  0  0  0  0
 26 47  1  0  0  0  0
 26 48  1  0  0  0  0
 26 49  1  0  0  0  0
 29 50  1  0  0  0  0
 30 51  1  0  0  0  0
 30 52  1  0  0  0  0
 30 53  1  0  0  0  0
M  END
> <i_m_stars>
0

> <r_user_dG.exp>
-10.141692

$$$$
18637-1
  -OEChem-05192314073D
 Structure written by MMmdl.
 53 54  0     0  0  0  0  0  0999 V2000
   24.0679   12.3974   30.2299 C   0  0  0  0  0  0  0  0  0  0  0  0
   23.3159   11.0783   30.4227 C   0  0  0  0  0  0  0  0  0  0  0  0
   22.2074   11.3318   31.2810 O   0  0  0  0  0  0  0  0  0  0  0  0
   21.4078   10.2815   31.6977 C   0  0  0  0  0  0  0  0  0  0  0  0
   21.7477    9.0318   31.2791 N   0  0  0  0  0  0  0  0  0  0  0  0
   20.9736    8.0017   31.6536 C   0  0  0  0  0  0  0  0  0  0  0  0
   19.8665    8.1461   32.4779 C   0  0  0  0  0  0  0  0  0  0  0  0
   19.5200    9.4177   32.8981 C   0  0  0  0  0  0  0  0  0  0  0  0
   18.3829    9.4988   33.6931 N   0  0  0  0  0  0  0  0  0  0  0  0
   20.2909   10.5235   32.5051 C   0  0  0  0  0  0  0  0  0  0  0  0
   19.9670   11.8935   32.8853 C   0  0  0  0  0  0  0  0  0  0  0  0
   19.7174   12.9843   33.1812 N   0  0  0  0  0  0  0  0  0  0  0  0
   21.4331    6.8194   31.1098 N   0  0  0  0  0  0  0  0  0  0  0  0
   20.8527    5.6189   31.0281 C   0  0  0  0  0  0  0  0  0  0  0  0
   19.7272    5.3573   31.4476 O   0  0  0  0  0  0  0  0  0  0  0  0
   21.6390    4.5479   30.2799 C   0  0  0  0  0  0  0  0  0  0  0  0
   23.0290    4.2861   30.8549 C   0  0  0  0  0  0  0  0  0  0  0  0
   24.1071    5.1197   30.5266 C   0  0  0  0  0  0  0  0  0  0  0  0
   23.8494    6.2028   29.7043 O   0  0  0  0  0  0  0  0  0  0  0  0
   24.8536    7.1989   29.5184 C   0  0  0  0  0  0  0  0  0  0  0  0
   25.3718    4.8226   31.0461 C   0  0  0  0  0  0  0  0  0  0  0  0
   25.5645    3.7381   31.9139 C   0  0  0  0  0  0  0  0  0  0  0  0
   24.4775    2.9179   32.2550 C   0  0  0  0  0  0  0  0  0  0  0  0
   23.2164    3.1999   31.7130 C   0  0  0  0  0  0  0  0  0  0  0  0
   24.7079    1.8722   33.1347 O   0  0  0  0  0  0  0  0  0  0  0  0
   23.7954    0.7759   33.1653 C   0  0  0  0  0  0  0  0  0  0  0  0
   26.8105    3.4129   32.4986 N   0  0  0  0  0  0  0  0  0  0  0  0
   28.0304    3.9580   32.3626 C   0  0  0  0  0  0  0  0  0  0  0  0
   28.3090    4.8809   31.6038 O   0  0  0  0  0  0  0  0  0  0  0  0
   29.1268    3.3864   33.2444 C   0  0  0  0  0  0  0  0  0  0  0  0
   24.9324   12.2341   29.5696 H   0  0  0  0  0  0  0  0  0  0  0  0
   23.3951   13.1399   29.7761 H   0  0  0  0  0  0  0  0  0  0  0  0
   24.4166   12.7665   31.2057 H   0  0  0  0  0  0  0  0  0  0  0  0
   22.9596   10.7050   29.4513 H   0  0  0  0  0  0  0  0  0  0  0  0
   23.9811   10.3316   30.8809 H   0  0  0  0  0  0  0  0  0  0  0  0
   22.5544    8.8849   30.7066 H   0  0  0  0  0  0  0  0  0  0  0  0
   19.2892    7.2862   32.7840 H   0  0  0  0  0  0  0  0  0  0  0  0
   18.1753   10.4413   33.9549 H   0  0  0  0  0  0  0  0  0  0  0  0
   22.3494    6.8695   30.7124 H   0  0  0  0  0  0  0  0  0  0  0  0
   21.0667    3.6092   30.3162 H   0  0  0  0  0  0  0  0  0  0  0  0
   21.7517    4.8684   29.2337 H   0  0  0  0  0  0  0  0  0  0  0  0
   24.4769    7.9778   28.8391 H   0  0  0  0  0  0  0  0  0  0  0  0
   25.1064    7.6502   30.4892 H   0  0  0  0  0  0  0  0  0  0  0  0
   25.7522    6.7368   29.0837 H   0  0  0  0  0  0  0  0  0  0  0  0
   26.2151    5.4399   30.7737 H   0  0  0  0  0  0  0  0  0  0  0  0
   22.3768    2.5680   31.9624 H   0  0  0  0  0  0  0  0  0  0  0  0
   24.1278    0.0422   33.9145 H   0  0  0  0  0  0  0  0  0  0  0  0
   22.7922    1.1413   33.4301 H   0  0  0  0  0  0  0  0  0  0  0  0
   23.7622    0.2989   32.1747 H   0  0  0  0  0  0  0  0  0  0  0  0
   26.7772    2.6361   33.1274 H   0  0  0  0  0  0  0  0  0  0  0  0
   30.0677    3.9238   33.0552 H   0  0  0  0  0  0  0  0  0  0  0  0
   28.8447    3.5020   34.3013 H   0  0  0  0  0  0  0  0  0  0  0  0
   29.2620    2.3190   33.0156 H   0  0  0  0  0  0  0  0  0  0  0  0
  1  2  1  0  0  0  0
  2  3  1  0  0  0  0
  3  4  1  0  0  0  0
  4 10  2  0  0  0  0
  4  5  1  0  0  0  0
  5  6  1  0  0  0  0
  6  7  2  0  0  0  0
  6 13  1  0  0  0  0
  7  8  1  0  0  0  0
  8  9  2  0  0  0  0
  8 10  1  0  0  0  0
 10 11  1  0  0  0  0
 11 12  3  0  0  0  0
 13 14  1  0  0  0  0
 14 15  2  0  0  0  0
 14 16  1  0  0  0  0
 16 17  1  0  0  0  0
 17 24  2  0  0  0  0
 17 18  1  0  0  0  0
 18 19  1  0  0  0  0
 18 21  2  0  0  0  0
 19 20  1  0  0  0  0
 21 22  1  0  0  0  0
 22 23  2  0  0  0  0
 22 27  1  0  0  0  0
 23 24  1  0  0  0  0
 23 25  1  0  0  0  0
 25 26  1  0  0  0  0
 27 28  1  0  0  0  0
 28 29  2  0  0  0  0
 28 30  1  0  0  0  0
  1 31  1  0  0  0  0
  1 32  1  0  0  0  0
  1 33  1  0  0  0  0
  2 34  1  0  0  0  0
  2 35  1  0  0  0  0
  5 36  1  0  0  0  0
  7 37  1  0  0  0  0
  9 38  1  0  0  0  0
 13 39  1  0  0  0  0
 16 40  1  0  0  0  0
 16 41  1  0  0  0  0
 20 42  1  0  0  0  0
 20 43  1  0  0  0  0
 20 44  1  0  0  0  0
 21 45  1  0  0  0  0
 24 46  1  0  0  0  0
 26 47  1  0  0  0  0
 26 48  1  0  0  0  0
 26 49  1  0  0  0  0
 27 50  1  0  0  0  0
 30 51  1  0  0  0  0
 30 52  1  0  0  0  0
 30 53  1  0  0  0  0
M  END
> <i_m_stars>
0

> <r_user_dG.exp>
-10.141692

$$$$
18637-1
  -OEChem-05192314073D
 Structure written by MMmdl.
 53 54  0     0  0  0  0  0  0999 V2000
   24.0679   12.3974   30.2299 C   0  0  0  0  0  0  0  0  0  0  0  0
   23.3159   11.0783   30.4227 C   0  0  0  0  0  0  0  0  0  0  0  0
   22.2074   11.3318   31.2810 O   0  0  0  0  0  0  0  0  0  0  0  0
   21.4078   10.2815   31.6977 C   0  0  0  0  0  0  0  0  0  0  0  0
   21.7477    9.0318   31.2791 N   0  0  0  0  0  0  0  0  0  0  0  0
   20.9736    8.0017   31.6536 C   0  0  0  0  0  0  0  0  0  0  0  0
   19.8665    8.1461   32.4779 C   0  0  0  0  0  0  0  0  0  0  0  0
   19.5200    9.4177   32.8981 C   0  0  0  0  0  0  0  0  0  0  0  0
   18.3829    9.4988   33.6931 N   0  0  0  0  0  0  0  0  0  0  0  0
   20.2909   10.5235   32.5051 C   0  0  0  0  0  0  0  0  0  0  0  0
   19.9670   11.8935   32.8853 C   0  0  0  0  0  0  0  0  0  0  0  0
   19.7174   12.9843   33.1812 N   0  0  0  0  0  0  0  0  0  0  0  0
   21.4331    6.8194   31.1098 N   0  0  0  0  0  0  0  0  0  0  0  0
   20.8527    5.6189   31.0281 C   0  0  0  0  0  0  0  0  0  0  0  0
   19.7272    5.3573   31.4476 O   0  0  0  0  0  0  0  0  0  0  0  0
   21.6390    4.5479   30.2799 C   0  0  0  0  0  0  0  0  0  0  0  0
   23.0290    4.2861   30.8549 C   0  0  0  0  0  0  0  0  0  0  0  0
   24.1071    5.1197   30.5266 C   0  0  0  0  0  0  0  0  0  0  0  0
   23.8494    6.2028   29.7043 O   0  0  0  0  0  0  0  0  0  0  0  0
   24.8536    7.1989   29.5184 C   0  0  0  0  0  0  0  0  0  0  0  0
   25.3718    4.8226   31.0461 C   0  0  0  0  0  0  0  0  0  0  0  0
   25.5645    3.7381   31.9139 C   0  0  0  0  0  0  0  0  0  0  0  0
   24.4775    2.9179   32.2550 C   0  0  0  0  0  0  0  0  0  0  0  0
   23.2164    3.1999   31.7130 C   0  0  0  0  0  0  0  0  0  0  0  0
   24.7079    1.8722   33.1347 O   0  0  0  0  0  0  0  0  0  0  0  0
   23.7954    0.7759   33.1653 C   0  0  0  0  0  0  0  0  0  0  0  0
   26.8105    3.4129   32.4986 N   0  0  0  0  0  0  0  0  0  0  0  0
   28.0304    3.9580   32.3626 C   0  0  0  0  0  0  0  0  0  0  0  0
   28.3090    4.8809   31.6038 O   0  0  0  0  0  0  0  0  0  0  0  0
   29.1268    3.3864   33.2444 C   0  0  0  0  0  0  0  0  0  0  0  0
   24.9324   12.2341   29.5696 H   0  0  0  0  0  0  0  0  0  0  0  0
   23.3951   13.1399   29.7761 H   0  0  0  0  0  0  0  0  0  0  0  0
   24.4166   12.7665   31.2057 H   0  0  0  0  0  0  0  0  0  0  0  0
   22.9596   10.7050   29.4513 H   0  0  0  0  0  0  0  0  0  0  0  0
   23.9811   10.3316   30.8809 H   0  0  0  0  0  0  0  0  0  0  0  0
   22.5544    8.8849   30.7066 H   0  0  0  0  0  0  0  0  0  0  0  0
   19.2892    7.2862   32.7840 H   0  0  0  0  0  0  0  0  0  0  0  0
   18.2177   10.4529   33.9431 H   0  0  0  0  0  0  0  0  0  0  0  0
   17.5962    9.1461   33.1864 H   0  0  0  0  0  0  0  0  0  0  0  0
   21.0667    3.6092   30.3162 H   0  0  0  0  0  0  0  0  0  0  0  0
   21.7517    4.8684   29.2337 H   0  0  0  0  0  0  0  0  0  0  0  0
   24.4769    7.9778   28.8391 H   0  0  0  0  0  0  0  0  0  0  0  0
   25.1064    7.6502   30.4892 H   0  0  0  0  0  0  0  0  0  0  0  0
   25.7522    6.7368   29.0837 H   0  0  0  0  0  0  0  0  0  0  0  0
   26.2151    5.4399   30.7737 H   0  0  0  0  0  0  0  0  0  0  0  0
   22.3768    2.5680   31.9624 H   0  0  0  0  0  0  0  0  0  0  0  0
   24.1278    0.0422   33.9145 H   0  0  0  0  0  0  0  0  0  0  0  0
   22.7922    1.1413   33.4301 H   0  0  0  0  0  0  0  0  0  0  0  0
   23.7622    0.2989   32.1747 H   0  0  0  0  0  0  0  0  0  0  0  0
   26.7772    2.6361   33.1274 H   0  0  0  0  0  0  0  0  0  0  0  0
   30.0677    3.9238   33.0552 H   0  0  0  0  0  0  0  0  0  0  0  0
   28.8447    3.5020   34.3013 H   0  0  0  0  0  0  0  0  0  0  0  0
   29.2620    2.3190   33.0156 H   0  0  0  0  0  0  0  0  0  0  0  0
  1  2  1  0  0  0  0
  2  3  1  0  0  0  0
  3  4  1  0  0  0  0
  4 10  2  0  0  0  0
  4  5  1  0  0  0  0
  5  6  1  0  0  0  0
  6  7  1  0  0  0  0
  6 13  2  0  0  0  0
  7  8  2  0  0  0  0
  8  9  1  0  0  0  0
  8 10  1  0  0  0  0
 10 11  1  0  0  0  0
 11 12  3  0  0  0  0
 13 14  1  0  0  0  0
 14 15  2  0  0  0  0
 14 16  1  0  0  0  0
 16 17  1  0  0  0  0
 17 24  2  0  0  0  0
 17 18  1  0  0  0  0
 18 19  1  0  0  0  0
 18 21  2  0  0  0  0
 19 20  1  0  0  0  0
 21 22  1  0  0  0  0
 22 23  2  0  0  0  0
 22 27  1  0  0  0  0
 23 24  1  0  0  0  0
 23 25  1  0  0  0  0
 25 26  1  0  0  0  0
 27 28  1  0  0  0  0
 28 29  2  0  0  0  0
 28 30  1  0  0  0  0
  1 31  1  0  0  0  0
  1 32  1  0  0  0  0
  1 33  1  0  0  0  0
  2 34  1  0  0  0  0
  2 35  1  0  0  0  0
  5 36  1  0  0  0  0
  7 37  1  0  0  0  0
  9 38  1  0  0  0  0
  9 39  1  0  0  0  0
 16 40  1  0  0  0  0
 16 41  1  0  0  0  0
 20 42  1  0  0  0  0
 20 43  1  0  0  0  0
 20 44  1  0  0  0  0
 21 45  1  0  0  0  0
 24 46  1  0  0  0  0
 26 47  1  0  0  0  0
 26 48  1  0  0  0  0
 26 49  1  0  0  0  0
 27 50  1  0  0  0  0
 30 51  1  0  0  0  0
 30 52  1  0  0  0  0
 30 53  1  0  0  0  0
M  END
> <i_m_stars>
0

> <r_user_dG.exp>
-10.141692

$$$$
18637-1
  -OEChem-05192314073D
 Structure written by MMmdl.
 53 54  0     0  0  0  0  0  0999 V2000
   24.0679   12.3974   30.2299 C   0  0  0  0  0  0  0  0  0  0  0  0
   23.3159   11.0783   30.4227 C   0  0  0  0  0  0  0  0  0  0  0  0
   22.2074   11.3318   31.2810 O   0  0  0  0  0  0  0  0  0  0  0  0
   21.4078   10.2815   31.6977 C   0  0  0  0  0  0  0  0  0  0  0  0
   21.7477    9.0318   31.2791 N   0  0  0  0  0  0  0  0  0  0  0  0
   20.9736    8.0017   31.6536 C   0  0  0  0  0  0  0  0  0  0  0  0
   19.8665    8.1461   32.4779 C   0  0  0  0  0  0  0  0  0  0  0  0
   19.5200    9.4177   32.8981 C   0  0  0  0  0  0  0  0  0  0  0  0
   18.3829    9.4988   33.6931 N   0  0  0  0  0  0  0  0  0  0  0  0
   20.2909   10.5235   32.5051 C   0  0  0  0  0  0  0  0  0  0  0  0
   19.9670   11.8935   32.8853 C   0  0  0  0  0  0  0  0  0  0  0  0
   19.7174   12.9843   33.1812 N   0  0  0  0  0  0  0  0  0  0  0  0
   21.4331    6.8194   31.1098 N   0  0  0  0  0  0  0  0  0  0  0  0
   20.8527    5.6189   31.0281 C   0  0  0  0  0  0  0  0  0  0  0  0
   19.7272    5.3573   31.4476 O   0  0  0  0  0  0  0  0  0  0  0  0
   21.6390    4.5479   30.2799 C   0  0  0  0  0  0  0  0  0  0  0  0
   23.0290    4.2861   30.8549 C   0  0  0  0  0  0  0  0  0  0  0  0
   24.1071    5.1197   30.5266 C   0  0  0  0  0  0  0  0  0  0  0  0
   23.8494    6.2028   29.7043 O   0  0  0  0  0  0  0  0  0  0  0  0
   24.8536    7.1989   29.5184 C   0  0  0  0  0  0  0  0  0  0  0  0
   25.3718    4.8226   31.0461 C   0  0  0  0  0  0  0  0  0  0  0  0
   25.5645    3.7381   31.9139 C   0  0  0  0  0  0  0  0  0  0  0  0
   24.4775    2.9179   32.2550 C   0  0  0  0  0  0  0  0  0  0  0  0
   23.2164    3.1999   31.7130 C   0  0  0  0  0  0  0  0  0  0  0  0
   24.7079    1.8722   33.1347 O   0  0  0  0  0  0  0  0  0  0  0  0
   23.7954    0.7759   33.1653 C   0  0  0  0  0  0  0  0  0  0  0  0
   26.8105    3.4129   32.4986 N   0  0  0  0  0  0  0  0  0  0  0  0
   28.0304    3.9580   32.3626 C   0  0  0  0  0  0  0  0  0  0  0  0
   28.3090    4.8809   31.6038 O   0  0  0  0  0  0  0  0  0  0  0  0
   29.1268    3.3864   33.2444 C   0  0  0  0  0  0  0  0  0  0  0  0
   24.9324   12.2341   29.5696 H   0  0  0  0  0  0  0  0  0  0  0  0
   23.3951   13.1399   29.7761 H   0  0  0  0  0  0  0  0  0  0  0  0
   24.4166   12.7665   31.2057 H   0  0  0  0  0  0  0  0  0  0  0  0
   22.9596   10.7050   29.4513 H   0  0  0  0  0  0  0  0  0  0  0  0
   23.9811   10.3316   30.8809 H   0  0  0  0  0  0  0  0  0  0  0  0
   22.5544    8.8849   30.7066 H   0  0  0  0  0  0  0  0  0  0  0  0
   19.2892    7.2862   32.7840 H   0  0  0  0  0  0  0  0  0  0  0  0
   18.1753   10.4413   33.9549 H   0  0  0  0  0  0  0  0  0  0  0  0
   22.3494    6.8695   30.7124 H   0  0  0  0  0  0  0  0  0  0  0  0
   21.0667    3.6092   30.3162 H   0  0  0  0  0  0  0  0  0  0  0  0
   21.7517    4.8684   29.2337 H   0  0  0  0  0  0  0  0  0  0  0  0
   24.4769    7.9778   28.8391 H   0  0  0  0  0  0  0  0  0  0  0  0
   25.1064    7.6502   30.4892 H   0  0  0  0  0  0  0  0  0  0  0  0
   25.7522    6.7368   29.0837 H   0  0  0  0  0  0  0  0  0  0  0  0
   26.2151    5.4399   30.7737 H   0  0  0  0  0  0  0  0  0  0  0  0
   22.3768    2.5680   31.9624 H   0  0  0  0  0  0  0  0  0  0  0  0
   24.1278    0.0422   33.9145 H   0  0  0  0  0  0  0  0  0  0  0  0
   22.7922    1.1413   33.4301 H   0  0  0  0  0  0  0  0  0  0  0  0
   23.7622    0.2989   32.1747 H   0  0  0  0  0  0  0  0  0  0  0  0
   29.2319    5.0909   31.6854 H   0  0  0  0  0  0  0  0  0  0  0  0
   30.0720    3.9114   33.0419 H   0  0  0  0  0  0  0  0  0  0  0  0
   28.8532    3.5187   34.3016 H   0  0  0  0  0  0  0  0  0  0  0  0
   29.2493    2.3147   33.0287 H   0  0  0  0  0  0  0  0  0  0  0  0
  1  2  1  0  0  0  0
  2  3  1  0  0  0  0
  3  4  1  0  0  0  0
  4 10  2  0  0  0  0
  4  5  1  0  0  0  0
  5  6  1  0  0  0  0
  6  7  2  0  0  0  0
  6 13  1  0  0  0  0
  7  8  1  0  0  0  0
  8  9  2  0  0  0  0
  8 10  1  0  0  0  0
 10 11  1  0  0  0  0
 11 12  3  0  0  0  0
 13 14  1  0  0  0  0
 14 15  2  0  0  0  0
 14 16  1  0  0  0  0
 16 17  1  0  0  0  0
 17 24  2  0  0  0  0
 17 18  1  0  0  0  0
 18 19  1  0  0  0  0
 18 21  2  0  0  0  0
 19 20  1  0  0  0  0
 21 22  1  0  0  0  0
 22 23  2  0  0  0  0
 22 27  1  0  0  0  0
 23 24  1  0  0  0  0
 23 25  1  0  0  0  0
 25 26  1  0  0  0  0
 27 28  2  0  0  0  0
 28 29  1  0  0  0  0
 28 30  1  0  0  0  0
  1 31  1  0  0  0  0
  1 32  1  0  0  0  0
  1 33  1  0  0  0  0
  2 34  1  0  0  0  0
  2 35  1  0  0  0  0
  5 36  1  0  0  0  0
  7 37  1  0  0  0  0
  9 38  1  0  0  0  0
 13 39  1  0  0  0  0
 16 40  1  0  0  0  0
 16 41  1  0  0  0  0
 20 42  1  0  0  0  0
 20 43  1  0  0  0  0
 20 44  1  0  0  0  0
 21 45  1  0  0  0  0
 24 46  1  0  0  0  0
 26 47  1  0  0  0  0
 26 48  1  0  0  0  0
 26 49  1  0  0  0  0
 29 50  1  0  0  0  0
 30 51  1  0  0  0  0
 30 52  1  0  0  0  0
 30 53  1  0  0  0  0
M  END
> <i_m_stars>
0

> <r_user_dG.exp>
-10.141692

$$$$
18637-1
  -OEChem-05192314073D
 Structure written by MMmdl.
 53 54  0     0  0  0  0  0  0999 V2000
   24.0679   12.3974   30.2299 C   0  0  0  0  0  0  0  0  0  0  0  0
   23.3159   11.0783   30.4227 C   0  0  0  0  0  0  0  0  0  0  0  0
   22.2074   11.3318   31.2810 O   0  0  0  0  0  0  0  0  0  0  0  0
   21.4078   10.2815   31.6977 C   0  0  0  0  0  0  0  0  0  0  0  0
   21.7477    9.0318   31.2791 N   0  0  0  0  0  0  0  0  0  0  0  0
   20.9736    8.0017   31.6536 C   0  0  0  0  0  0  0  0  0  0  0  0
   19.8665    8.1461   32.4779 C   0  0  0  0  0  0  0  0  0  0  0  0
   19.5200    9.4177   32.8981 C   0  0  0  0  0  0  0  0  0  0  0  0
   18.3829    9.4988   33.6931 N   0  0  0  0  0  0  0  0  0  0  0  0
   20.2909   10.5235   32.5051 C   0  0  0  0  0  0  0  0  0  0  0  0
   19.9670   11.8935   32.8853 C   0  0  0  0  0  0  0  0  0  0  0  0
   19.7174   12.9843   33.1812 N   0  0  0  0  0  0  0  0  0  0  0  0
   21.4331    6.8194   31.1098 N   0  0  0  0  0  0  0  0  0  0  0  0
   20.8527    5.6189   31.0281 C   0  0  0  0  0  0  0  0  0  0  0  0
   19.7272    5.3573   31.4476 O   0  0  0  0  0  0  0  0  0  0  0  0
   21.6390    4.5479   30.2799 C   0  0  0  0  0  0  0  0  0  0  0  0
   23.0290    4.2861   30.8549 C   0  0  0  0  0  0  0  0  0  0  0  0
   24.1071    5.1197   30.5266 C   0  0  0  0  0  0  0  0  0  0  0  0
   23.8494    6.2028   29.7043 O   0  0  0  0  0  0  0  0  0  0  0  0
   24.8536    7.1989   29.5184 C   0  0  0  0  0  0  0  0  0  0  0  0
   25.3718    4.8226   31.0461 C   0  0  0  0  0  0  0  0  0  0  0  0
   25.5645    3.7381   31.9139 C   0  0  0  0  0  0  0  0  0  0  0  0
   24.4775    2.9179   32.2550 C   0  0  0  0  0  0  0  0  0  0  0  0
   23.2164    3.1999   31.7130 C   0  0  0  0  0  0  0  0  0  0  0  0
   24.7079    1.8722   33.1347 O   0  0  0  0  0  0  0  0  0  0  0  0
   23.7954    0.7759   33.1653 C   0  0  0  0  0  0  0  0  0  0  0  0
   26.8105    3.4129   32.4986 N   0  0  0  0  0  0  0  0  0  0  0  0
   28.0304    3.9580   32.3626 C   0  0  0  0  0  0  0  0  0  0  0  0
   28.3090    4.8809   31.6038 O   0  0  0  0  0  0  0  0  0  0  0  0
   29.1268    3.3864   33.2444 C   0  0  0  0  0  0  0  0  0  0  0  0
   24.9324   12.2341   29.5696 H   0  0  0  0  0  0  0  0  0  0  0  0
   23.3951   13.1399   29.7761 H   0  0  0  0  0  0  0  0  0  0  0  0
   24.4166   12.7665   31.2057 H   0  0  0  0  0  0  0  0  0  0  0  0
   22.9596   10.7050   29.4513 H   0  0  0  0  0  0  0  0  0  0  0  0
   23.9811   10.3316   30.8809 H   0  0  0  0  0  0  0  0  0  0  0  0
   22.5544    8.8849   30.7066 H   0  0  0  0  0  0  0  0  0  0  0  0
   19.2892    7.2862   32.7840 H   0  0  0  0  0  0  0  0  0  0  0  0
   18.1753   10.4413   33.9549 H   0  0  0  0  0  0  0  0  0  0  0  0
   19.5301    4.4435   31.2783 H   0  0  0  0  0  0  0  0  0  0  0  0
   21.0667    3.6092   30.3162 H   0  0  0  0  0  0  0  0  0  0  0  0
   21.7517    4.8684   29.2337 H   0  0  0  0  0  0  0  0  0  0  0  0
   24.4769    7.9778   28.8391 H   0  0  0  0  0  0  0  0  0  0  0  0
   25.1064    7.6502   30.4892 H   0  0  0  0  0  0  0  0  0  0  0  0
   25.7522    6.7368   29.0837 H   0  0  0  0  0  0  0  0  0  0  0  0
   26.2151    5.4399   30.7737 H   0  0  0  0  0  0  0  0  0  0  0  0
   22.3768    2.5680   31.9624 H   0  0  0  0  0  0  0  0  0  0  0  0
   24.1278    0.0422   33.9145 H   0  0  0  0  0  0  0  0  0  0  0  0
   22.7922    1.1413   33.4301 H   0  0  0  0  0  0  0  0  0  0  0  0
   23.7622    0.2989   32.1747 H   0  0  0  0  0  0  0  0  0  0  0  0
   26.7772    2.6361   33.1274 H   0  0  0  0  0  0  0  0  0  0  0  0
   30.0677    3.9238   33.0552 H   0  0  0  0  0  0  0  0  0  0  0  0
   28.8447    3.5020   34.3013 H   0  0  0  0  0  0  0  0  0  0  0  0
   29.2620    2.3190   33.0156 H   0  0  0  0  0  0  0  0  0  0  0  0
  1  2  1  0  0  0  0
  2  3  1  0  0  0  0
  3  4  1  0  0  0  0
  4 10  2  0  0  0  0
  4  5  1  0  0  0  0
  5  6  1  0  0  0  0
  6  7  2  0  0  0  0
  6 13  1  0  0  0  0
  7  8  1  0  0  0  0
  8  9  2  0  0  0  0
  8 10  1  0  0  0  0
 10 11  1  0  0  0  0
 11 12  3  0  0  0  0
 13 14  2  0  0  0  0
 14 15  1  0  0  0  0
 14 16  1  0  0  0  0
 16 17  1  0  0  0  0
 17 24  2  0  0  0  0
 17 18  1  0  0  0  0
 18 19  1  0  0  0  0
 18 21  2  0  0  0  0
 19 20  1  0  0  0  0
 21 22  1  0  0  0  0
 22 23  2  0  0  0  0
 22 27  1  0  0  0  0
 23 24  1  0  0  0  0
 23 25  1  0  0  0  0
 25 26  1  0  0  0  0
 27 28  1  0  0  0  0
 28 29  2  0  0  0  0
 28 30  1  0  0  0  0
  1 31  1  0  0  0  0
  1 32  1  0  0  0  0
  1 33  1  0  0  0  0
  2 34  1  0  0  0  0
  2 35  1  0  0  0  0
  5 36  1  0  0  0  0
  7 37  1  0  0  0  0
  9 38  1  0  0  0  0
 15 39  1  0  0  0  0
 16 40  1  0  0  0  0
 16 41  1  0  0  0  0
 20 42  1  0  0  0  0
 20 43  1  0  0  0  0
 20 44  1  0  0  0  0
 21 45  1  0  0  0  0
 24 46  1  0  0  0  0
 26 47  1  0  0  0  0
 26 48  1  0  0  0  0
 26 49  1  0  0  0  0
 27 50  1  0  0  0  0
 30 51  1  0  0  0  0
 30 52  1  0  0  0  0
 30 53  1  0  0  0  0
M  END
> <i_m_stars>
0

> <r_user_dG.exp>
-10.141692

$$$$
18637-1
  -OEChem-05192314073D
 Structure written by MMmdl.
 53 54  0     0  0  0  0  0  0999 V2000
   24.0679   12.3974   30.2299 C   0  0  0  0  0  0  0  0  0  0  0  0
   23.3159   11.0783   30.4227 C   0  0  0  0  0  0  0  0  0  0  0  0
   22.2074   11.3318   31.2810 O   0  0  0  0  0  0  0  0  0  0  0  0
   21.4078   10.2815   31.6977 C   0  0  0  0  0  0  0  0  0  0  0  0
   21.7477    9.0318   31.2791 N   0  0  0  0  0  0  0  0  0  0  0  0
   20.9736    8.0017   31.6536 C   0  0  0  0  0  0  0  0  0  0  0  0
   19.8665    8.1461   32.4779 C   0  0  0  0  0  0  0  0  0  0  0  0
   19.5200    9.4177   32.8981 C   0  0  0  0  0  0  0  0  0  0  0  0
   18.3829    9.4988   33.6931 N   0  0  0  0  0  0  0  0  0  0  0  0
   20.2909   10.5235   32.5051 C   0  0  0  0  0  0  0  0  0  0  0  0
   19.9670   11.8935   32.8853 C   0  0  0  0  0  0  0  0  0  0  0  0
   19.7174   12.9843   33.1812 N   0  0  0  0  0  0  0  0  0  0  0  0
   21.4331    6.8194   31.1098 N   0  0  0  0  0  0  0  0  0  0  0  0
   20.8527    5.6189   31.0281 C   0  0  0  0  0  0  0  0  0  0  0  0
   19.7272    5.3573   31.4476 O   0  0  0  0  0  0  0  0  0  0  0  0
   21.6390    4.5479   30.2799 C   0  0  0  0  0  0  0  0  0  0  0  0
   23.0290    4.2861   30.8549 C   0  0  0  0  0  0  0  0  0  0  0  0
   24.1071    5.1197   30.5266 C   0  0  0  0  0  0  0  0  0  0  0  0
   23.8494    6.2028   29.7043 O   0  0  0  0  0  0  0  0  0  0  0  0
   24.8536    7.1989   29.5184 C   0  0  0  0  0  0  0  0  0  0  0  0
   25.3718    4.8226   31.0461 C   0  0  0  0  0  0  0  0  0  0  0  0
   25.5645    3.7381   31.9139 C   0  0  0  0  0  0  0  0  0  0  0  0
   24.4775    2.9179   32.2550 C   0  0  0  0  0  0  0  0  0  0  0  0
   23.2164    3.1999   31.7130 C   0  0  0  0  0  0  0  0  0  0  0  0
   24.7079    1.8722   33.1347 O   0  0  0  0  0  0  0  0  0  0  0  0
   23.7954    0.7759   33.1653 C   0  0  0  0  0  0  0  0  0  0  0  0
   26.8105    3.4129   32.4986 N   0  0  0  0  0  0  0  0  0  0  0  0
   28.0304    3.9580   32.3626 C   0  0  0  0  0  0  0  0  0  0  0  0
   28.3090    4.8809   31.6038 O   0  0  0  0  0  0  0  0  0  0  0  0
   29.1268    3.3864   33.2444 C   0  0  0  0  0  0  0  0  0  0  0  0
   24.9324   12.2341   29.5696 H   0  0  0  0  0  0  0  0  0  0  0  0
   23.3951   13.1399   29.7761 H   0  0  0  0  0  0  0  0  0  0  0  0
   24.4166   12.7665   31.2057 H   0  0  0  0  0  0  0  0  0  0  0  0
   22.9596   10.7050   29.4513 H   0  0  0  0  0  0  0  0  0  0  0  0
   23.9811   10.3316   30.8809 H   0  0  0  0  0  0  0  0  0  0  0  0
   22.5544    8.8849   30.7066 H   0  0  0  0  0  0  0  0  0  0  0  0
   19.2892    7.2862   32.7840 H   0  0  0  0  0  0  0  0  0  0  0  0
   18.2177   10.4529   33.9431 H   0  0  0  0  0  0  0  0  0  0  0  0
   17.5962    9.1461   33.1864 H   0  0  0  0  0  0  0  0  0  0  0  0
   21.0667    3.6092   30.3162 H   0  0  0  0  0  0  0  0  0  0  0  0
   21.7517    4.8684   29.2337 H   0  0  0  0  0  0  0  0  0  0  0  0
   24.4769    7.9778   28.8391 H   0  0  0  0  0  0  0  0  0  0  0  0
   25.1064    7.6502   30.4892 H   0  0  0  0  0  0  0  0  0  0  0  0
   25.7522    6.7368   29.0837 H   0  0  0  0  0  0  0  0  0  0  0  0
   26.2151    5.4399   30.7737 H   0  0  0  0  0  0  0  0  0  0  0  0
   22.3768    2.5680   31.9624 H   0  0  0  0  0  0  0  0  0  0  0  0
   24.1278    0.0422   33.9145 H   0  0  0  0  0  0  0  0  0  0  0  0
   22.7922    1.1413   33.4301 H   0  0  0  0  0  0  0  0  0  0  0  0
   23.7622    0.2989   32.1747 H   0  0  0  0  0  0  0  0  0  0  0  0
   29.2319    5.0909   31.6854 H   0  0  0  0  0  0  0  0  0  0  0  0
   30.0720    3.9114   33.0419 H   0  0  0  0  0  0  0  0  0  0  0  0
   28.8532    3.5187   34.3016 H   0  0  0  0  0  0  0  0  0  0  0  0
   29.2493    2.3147   33.0287 H   0  0  0  0  0  0  0  0  0  0  0  0
  1  2  1  0  0  0  0
  2  3  1  0  0  0  0
  3  4  1  0  0  0  0
  4 10  2  0  0  0  0
  4  5  1  0  0  0  0
  5  6  1  0  0  0  0
  6  7  1  0  0  0  0
  6 13  2  0  0  0  0
  7  8  2  0  0  0  0
  8  9  1  0  0  0  0
  8 10  1  0  0  0  0
 10 11  1  0  0  0  0
 11 12  3  0  0  0  0
 13 14  1  0  0  0  0
 14 15  2  0  0  0  0
 14 16  1  0  0  0  0
 16 17  1  0  0  0  0
 17 24  2  0  0  0  0
 17 18  1  0  0  0  0
 18 19  1  0  0  0  0
 18 21  2  0  0  0  0
 19 20  1  0  0  0  0
 21 22  1  0  0  0  0
 22 23  2  0  0  0  0
 22 27  1  0  0  0  0
 23 24  1  0  0  0  0
 23 25  1  0  0  0  0
 25 26  1  0  0  0  0
 27 28  2  0  0  0  0
 28 29  1  0  0  0  0
 28 30  1  0  0  0  0
  1 31  1  0  0  0  0
  1 32  1  0  0  0  0
  1 33  1  0  0  0  0
  2 34  1  0  0  0  0
  2 35  1  0  0  0  0
  5 36  1  0  0  0  0
  7 37  1  0  0  0  0
  9 38  1  0  0  0  0
  9 39  1  0  0  0  0
 16 40  1  0  0  0  0
 16 41  1  0  0  0  0
 20 42  1  0  0  0  0
 20 43  1  0  0  0  0
 20 44  1  0  0  0  0
 21 45  1  0  0  0  0
 24 46  1  0  0  0  0
 26 47  1  0  0  0  0
 26 48  1  0  0  0  0
 26 49  1  0  0  0  0
 29 50  1  0  0  0  0
 30 51  1  0  0  0  0
 30 52  1  0  0  0  0
 30 53  1  0  0  0  0
M  END
> <i_m_stars>
0

> <r_user_dG.exp>
-10.141692

$$$$
18637-1
  -OEChem-05192314073D
 Structure written by MMmdl.
 53 54  0     0  0  0  0  0  0999 V2000
   24.0679   12.3974   30.2299 C   0  0  0  0  0  0  0  0  0  0  0  0
   23.3159   11.0783   30.4227 C   0  0  0  0  0  0  0  0  0  0  0  0
   22.2074   11.3318   31.2810 O   0  0  0  0  0  0  0  0  0  0  0  0
   21.4078   10.2815   31.6977 C   0  0  0  0  0  0  0  0  0  0  0  0
   21.7477    9.0318   31.2791 N   0  0  0  0  0  0  0  0  0  0  0  0
   20.9736    8.0017   31.6536 C   0  0  0  0  0  0  0  0  0  0  0  0
   19.8665    8.1461   32.4779 C   0  0  0  0  0  0  0  0  0  0  0  0
   19.5200    9.4177   32.8981 C   0  0  0  0  0  0  0  0  0  0  0  0
   18.3829    9.4988   33.6931 N   0  0  0  0  0  0  0  0  0  0  0  0
   20.2909   10.5235   32.5051 C   0  0  0  0  0  0  0  0  0  0  0  0
   19.9670   11.8935   32.8853 C   0  0  0  0  0  0  0  0  0  0  0  0
   19.7174   12.9843   33.1812 N   0  0  0  0  0  0  0  0  0  0  0  0
   21.4331    6.8194   31.1098 N   0  0  0  0  0  0  0  0  0  0  0  0
   20.8527    5.6189   31.0281 C   0  0  0  0  0  0  0  0  0  0  0  0
   19.7272    5.3573   31.4476 O   0  0  0  0  0  0  0  0  0  0  0  0
   21.6390    4.5479   30.2799 C   0  0  0  0  0  0  0  0  0  0  0  0
   23.0290    4.2861   30.8549 C   0  0  0  0  0  0  0  0  0  0  0  0
   24.1071    5.1197   30.5266 C   0  0  0  0  0  0  0  0  0  0  0  0
   23.8494    6.2028   29.7043 O   0  0  0  0  0  0  0  0  0  0  0  0
   24.8536    7.1989   29.5184 C   0  0  0  0  0  0  0  0  0  0  0  0
   25.3718    4.8226   31.0461 C   0  0  0  0  0  0  0  0  0  0  0  0
   25.5645    3.7381   31.9139 C   0  0  0  0  0  0  0  0  0  0  0  0
   24.4775    2.9179   32.2550 C   0  0  0  0  0  0  0  0  0  0  0  0
   23.2164    3.1999   31.7130 C   0  0  0  0  0  0  0  0  0  0  0  0
   24.7079    1.8722   33.1347 O   0  0  0  0  0  0  0  0  0  0  0  0
   23.7954    0.7759   33.1653 C   0  0  0  0  0  0  0  0  0  0  0  0
   26.8105    3.4129   32.4986 N   0  0  0  0  0  0  0  0  0  0  0  0
   28.0304    3.9580   32.3626 C   0  0  0  0  0  0  0  0  0  0  0  0
   28.3090    4.8809   31.6038 O   0  0  0  0  0  0  0  0  0  0  0  0
   29.1268    3.3864   33.2444 C   0  0  0  0  0  0  0  0  0  0  0  0
   24.9324   12.2341   29.5696 H   0  0  0  0  0  0  0  0  0  0  0  0
   23.3951   13.1399   29.7761 H   0  0  0  0  0  0  0  0  0  0  0  0
   24.4166   12.7665   31.2057 H   0  0  0  0  0  0  0  0  0  0  0  0
   22.9596   10.7050   29.4513 H   0  0  0  0  0  0  0  0  0  0  0  0
   23.9811   10.3316   30.8809 H   0  0  0  0  0  0  0  0  0  0  0  0
   22.5544    8.8849   30.7066 H   0  0  0  0  0  0  0  0  0  0  0  0
   19.2892    7.2862   32.7840 H   0  0  0  0  0  0  0  0  0  0  0  0
   18.1753   10.4413   33.9549 H   0  0  0  0  0  0  0  0  0  0  0  0
   19.5301    4.4435   31.2783 H   0  0  0  0  0  0  0  0  0  0  0  0
   21.0667    3.6092   30.3162 H   0  0  0  0  0  0  0  0  0  0  0  0
   21.7517    4.8684   29.2337 H   0  0  0  0  0  0  0  0  0  0  0  0
   24.4769    7.9778   28.8391 H   0  0  0  0  0  0  0  0  0  0  0  0
   25.1064    7.6502   30.4892 H   0  0  0  0  0  0  0  0  0  0  0  0
   25.7522    6.7368   29.0837 H   0  0  0  0  0  0  0  0  0  0  0  0
   26.2151    5.4399   30.7737 H   0  0  0  0  0  0  0  0  0  0  0  0
   22.3768    2.5680   31.9624 H   0  0  0  0  0  0  0  0  0  0  0  0
   24.1278    0.0422   33.9145 H   0  0  0  0  0  0  0  0  0  0  0  0
   22.7922    1.1413   33.4301 H   0  0  0  0  0  0  0  0  0  0  0  0
   23.7622    0.2989   32.1747 H   0  0  0  0  0  0  0  0  0  0  0  0
   29.2319    5.0909   31.6854 H   0  0  0  0  0  0  0  0  0  0  0  0
   30.0720    3.9114   33.0419 H   0  0  0  0  0  0  0  0  0  0  0  0
   28.8532    3.5187   34.3016 H   0  0  0  0  0  0  0  0  0  0  0  0
   29.2493    2.3147   33.0287 H   0  0  0  0  0  0  0  0  0  0  0  0
  1  2  1  0  0  0  0
  2  3  1  0  0  0  0
  3  4  1  0  0  0  0
  4 10  2  0  0  0  0
  4  5  1  0  0  0  0
  5  6  1  0  0  0  0
  6  7  2  0  0  0  0
  6 13  1  0  0  0  0
  7  8  1  0  0  0  0
  8  9  2  0  0  0  0
  8 10  1  0  0  0  0
 10 11  1  0  0  0  0
 11 12  3  0  0  0  0
 13 14  2  0  0  0  0
 14 15  1  0  0  0  0
 14 16  1  0  0  0  0
 16 17  1  0  0  0  0
 17 24  2  0  0  0  0
 17 18  1  0  0  0  0
 18 19  1  0  0  0  0
 18 21  2  0  0  0  0
 19 20  1  0  0  0  0
 21 22  1  0  0  0  0
 22 23  2  0  0  0  0
 22 27  1  0  0  0  0
 23 24  1  0  0  0  0
 23 25  1  0  0  0  0
 25 26  1  0  0  0  0
 27 28  2  0  0  0  0
 28 29  1  0  0  0  0
 28 30  1  0  0  0  0
  1 31  1  0  0  0  0
  1 32  1  0  0  0  0
  1 33  1  0  0  0  0
  2 34  1  0  0  0  0
  2 35  1  0  0  0  0
  5 36  1  0  0  0  0
  7 37  1  0  0  0  0
  9 38  1  0  0  0  0
 15 39  1  0  0  0  0
 16 40  1  0  0  0  0
 16 41  1  0  0  0  0
 20 42  1  0  0  0  0
 20 43  1  0  0  0  0
 20 44  1  0  0  0  0
 21 45  1  0  0  0  0
 24 46  1  0  0  0  0
 26 47  1  0  0  0  0
 26 48  1  0  0  0  0
 26 49  1  0  0  0  0
 29 50  1  0  0  0  0
 30 51  1  0  0  0  0
 30 52  1  0  0  0  0
 30 53  1  0  0  0  0
M  END
> <i_m_stars>
0

> <r_user_dG.exp>
-10.141692

$$$$
18637-1
  -OEChem-05192314073D
 Structure written by MMmdl.
 53 54  0     1  0  0  0  0  0999 V2000
   24.0679   12.3974   30.2299 C   0  0  0  0  0  0  0  0  0  0  0  0
   23.3159   11.0783   30.4227 C   0  0  0  0  0  0  0  0  0  0  0  0
   22.2074   11.3318   31.2810 O   0  0  0  0  0  0  0  0  0  0  0  0
   21.4078   10.2815   31.6977 C   0  0  0  0  0  0  0  0  0  0  0  0
   21.7477    9.0318   31.2791 N   0  0  0  0  0  0  0  0  0  0  0  0
   20.9736    8.0017   31.6536 C   0  0  0  0  0  0  0  0  0  0  0  0
   19.8665    8.1461   32.4779 C   0  0  0  0  0  0  0  0  0  0  0  0
   19.5200    9.4177   32.8981 C   0  0  0  0  0  0  0  0  0  0  0  0
   18.3829    9.4988   33.6931 N   0  0  0  0  0  0  0  0  0  0  0  0
   20.2909   10.5235   32.5051 C   0  0  3  0  0  0  0  0  0  0  0  0
   19.9670   11.8935   32.8853 C   0  0  0  0  0  0  0  0  0  0  0  0
   19.7174   12.9843   33.1812 N   0  0  0  0  0  0  0  0  0  0  0  0
   21.4331    6.8194   31.1098 N   0  0  0  0  0  0  0  0  0  0  0  0
   20.8527    5.6189   31.0281 C   0  0  0  0  0  0  0  0  0  0  0  0
   19.7272    5.3573   31.4476 O   0  0  0  0  0  0  0  0  0  0  0  0
   21.6390    4.5479   30.2799 C   0  0  0  0  0  0  0  0  0  0  0  0
   23.0290    4.2861   30.8549 C   0  0  0  0  0  0  0  0  0  0  0  0
   24.1071    5.1197   30.5266 C   0  0  0  0  0  0  0  0  0  0  0  0
   23.8494    6.2028   29.7043 O   0  0  0  0  0  0  0  0  0  0  0  0
   24.8536    7.1989   29.5184 C   0  0  0  0  0  0  0  0  0  0  0  0
   25.3718    4.8226   31.0461 C   0  0  0  0  0  0  0  0  0  0  0  0
   25.5645    3.7381   31.9139 C   0  0  0  0  0  0  0  0  0  0  0  0
   24.4775    2.9179   32.2550 C   0  0  0  0  0  0  0  0  0  0  0  0
   23.2164    3.1999   31.7130 C   0  0  0  0  0  0  0  0  0  0  0  0
   24.7079    1.8722   33.1347 O   0  0  0  0  0  0  0  0  0  0  0  0
   23.7954    0.7759   33.1653 C   0  0  0  0  0  0  0  0  0  0  0  0
   26.8105    3.4129   32.4986 N   0  0  0  0  0  0  0  0  0  0  0  0
   28.0304    3.9580   32.3626 C   0  0  0  0  0  0  0  0  0  0  0  0
   28.3090    4.8809   31.6038 O   0  0  0  0  0  0  0  0  0  0  0  0
   29.1268    3.3864   33.2444 C   0  0  0  0  0  0  0  0  0  0  0  0
   24.9324   12.2341   29.5696 H   0  0  0  0  0  0  0  0  0  0  0  0
   23.3951   13.1399   29.7761 H   0  0  0  0  0  0  0  0  0  0  0  0
   24.4166   12.7665   31.2057 H   0  0  0  0  0  0  0  0  0  0  0  0
   22.9596   10.7050   29.4513 H   0  0  0  0  0  0  0  0  0  0  0  0
   23.9811   10.3316   30.8809 H   0  0  0  0  0  0  0  0  0  0  0  0
   19.0018    7.7360   31.9357 H   0  0  0  0  0  0  0  0  0  0  0  0
   20.0523    7.5449   33.3801 H   0  0  0  0  0  0  0  0  0  0  0  0
   18.1753   10.4413   33.9549 H   0  0  0  0  0  0  0  0  0  0  0  0
   20.9130   10.4158   33.4059 H   0  0  0  0  0  0  0  0  0  0  0  0
   21.0667    3.6092   30.3162 H   0  0  0  0  0  0  0  0  0  0  0  0
   21.7517    4.8684   29.2337 H   0  0  0  0  0  0  0  0  0  0  0  0
   24.4769    7.9778   28.8391 H   0  0  0  0  0  0  0  0  0  0  0  0
   25.1064    7.6502   30.4892 H   0  0  0  0  0  0  0  0  0  0  0  0
   25.7522    6.7368   29.0837 H   0  0  0  0  0  0  0  0  0  0  0  0
   26.2151    5.4399   30.7737 H   0  0  0  0  0  0  0  0  0  0  0  0
   22.3768    2.5680   31.9624 H   0  0  0  0  0  0  0  0  0  0  0  0
   24.1278    0.0422   33.9145 H   0  0  0  0  0  0  0  0  0  0  0  0
   22.7922    1.1413   33.4301 H   0  0  0  0  0  0  0  0  0  0  0  0
   23.7622    0.2989   32.1747 H   0  0  0  0  0  0  0  0  0  0  0  0
   26.7772    2.6361   33.1274 H   0  0  0  0  0  0  0  0  0  0  0  0
   30.0677    3.9238   33.0552 H   0  0  0  0  0  0  0  0  0  0  0  0
   28.8447    3.5020   34.3013 H   0  0  0  0  0  0  0  0  0  0  0  0
   29.2620    2.3190   33.0156 H   0  0  0  0  0  0  0  0  0  0  0  0
  1  2  1  0  0  0  0
  2  3  1  0  0  0  0
  3  4  1  0  0  0  0
  4 10  1  0  0  0  0
  4  5  2  0  0  0  0
  5  6  1  0  0  0  0
  6  7  1  0  0  0  0
  6 13  2  0  0  0  0
  7  8  1  0  0  0  0
  8  9  2  0  0  0  0
  8 10  1  0  0  0  0
 10 11  1  0  0  0  0
 11 12  3  0  0  0  0
 13 14  1  0  0  0  0
 14 15  2  0  0  0  0
 14 16  1  0  0  0  0
 16 17  1  0  0  0  0
 17 24  2  0  0  0  0
 17 18  1  0  0  0  0
 18 19  1  0  0  0  0
 18 21  2  0  0  0  0
 19 20  1  0  0  0  0
 21 22  1  0  0  0  0
 22 23  2  0  0  0  0
 22 27  1  0  0  0  0
 23 24  1  0  0  0  0
 23 25  1  0  0  0  0
 25 26  1  0  0  0  0
 27 28  1  0  0  0  0
 28 29  2  0  0  0  0
 28 30  1  0  0  0  0
  1 31  1  0  0  0  0
  1 32  1  0  0  0  0
  1 33  1  0  0  0  0
  2 34  1  0  0  0  0
  2 35  1  0  0  0  0
  7 36  1  0  0  0  0
  7 37  1  0  0  0  0
  9 38  1  0  0  0  0
 10 39  1  0  0  0  0
 16 40  1  0  0  0  0
 16 41  1  0  0  0  0
 20 42  1  0  0  0  0
 20 43  1  0  0  0  0
 20 44  1  0  0  0  0
 21 45  1  0  0  0  0
 24 46  1  0  0  0  0
 26 47  1  0  0  0  0
 26 48  1  0  0  0  0
 26 49  1  0  0  0  0
 27 50  1  0  0  0  0
 30 51  1  0  0  0  0
 30 52  1  0  0  0  0
 30 53  1  0  0  0  0
M  END
> <i_m_stars>
0

> <r_user_dG.exp>
-10.141692

$$$$
18637-1
  -OEChem-05192314073D
 Structure written by MMmdl.
 53 54  0     1  0  0  0  0  0999 V2000
   24.0679   12.3974   30.2299 C   0  0  0  0  0  0  0  0  0  0  0  0
   23.3159   11.0783   30.4227 C   0  0  0  0  0  0  0  0  0  0  0  0
   22.2074   11.3318   31.2810 O   0  0  0  0  0  0  0  0  0  0  0  0
   21.4078   10.2815   31.6977 C   0  0  0  0  0  0  0  0  0  0  0  0
   21.7477    9.0318   31.2791 N   0  0  0  0  0  0  0  0  0  0  0  0
   20.9736    8.0017   31.6536 C   0  0  0  0  0  0  0  0  0  0  0  0
   19.8665    8.1461   32.4779 C   0  0  0  0  0  0  0  0  0  0  0  0
   19.5200    9.4177   32.8981 C   0  0  0  0  0  0  0  0  0  0  0  0
   18.3829    9.4988   33.6931 N   0  0  0  0  0  0  0  0  0  0  0  0
   20.2909   10.5235   32.5051 C   0  0  3  0  0  0  0  0  0  0  0  0
   19.9670   11.8935   32.8853 C   0  0  0  0  0  0  0  0  0  0  0  0
   19.7174   12.9843   33.1812 N   0  0  0  0  0  0  0  0  0  0  0  0
   21.4331    6.8194   31.1098 N   0  0  0  0  0  0  0  0  0  0  0  0
   20.8527    5.6189   31.0281 C   0  0  0  0  0  0  0  0  0  0  0  0
   19.7272    5.3573   31.4476 O   0  0  0  0  0  0  0  0  0  0  0  0
   21.6390    4.5479   30.2799 C   0  0  0  0  0  0  0  0  0  0  0  0
   23.0290    4.2861   30.8549 C   0  0  0  0  0  0  0  0  0  0  0  0
   24.1071    5.1197   30.5266 C   0  0  0  0  0  0  0  0  0  0  0  0
   23.8494    6.2028   29.7043 O   0  0  0  0  0  0  0  0  0  0  0  0
   24.8536    7.1989   29.5184 C   0  0  0  0  0  0  0  0  0  0  0  0
   25.3718    4.8226   31.0461 C   0  0  0  0  0  0  0  0  0  0  0  0
   25.5645    3.7381   31.9139 C   0  0  0  0  0  0  0  0  0  0  0  0
   24.4775    2.9179   32.2550 C   0  0  0  0  0  0  0  0  0  0  0  0
   23.2164    3.1999   31.7130 C   0  0  0  0  0  0  0  0  0  0  0  0
   24.7079    1.8722   33.1347 O   0  0  0  0  0  0  0  0  0  0  0  0
   23.7954    0.7759   33.1653 C   0  0  0  0  0  0  0  0  0  0  0  0
   26.8105    3.4129   32.4986 N   0  0  0  0  0  0  0  0  0  0  0  0
   28.0304    3.9580   32.3626 C   0  0  0  0  0  0  0  0  0  0  0  0
   28.3090    4.8809   31.6038 O   0  0  0  0  0  0  0  0  0  0  0  0
   29.1268    3.3864   33.2444 C   0  0  0  0  0  0  0  0  0  0  0  0
   24.9324   12.2341   29.5696 H   0  0  0  0  0  0  0  0  0  0  0  0
   23.3951   13.1399   29.7761 H   0  0  0  0  0  0  0  0  0  0  0  0
   24.4166   12.7665   31.2057 H   0  0  0  0  0  0  0  0  0  0  0  0
   22.9596   10.7050   29.4513 H   0  0  0  0  0  0  0  0  0  0  0  0
   23.9811   10.3316   30.8809 H   0  0  0  0  0  0  0  0  0  0  0  0
   19.0018    7.7360   31.9357 H   0  0  0  0  0  0  0  0  0  0  0  0
   20.0523    7.5449   33.3801 H   0  0  0  0  0  0  0  0  0  0  0  0
   18.1753   10.4413   33.9549 H   0  0  0  0  0  0  0  0  0  0  0  0
   20.9130   10.4158   33.4059 H   0  0  0  0  0  0  0  0  0  0  0  0
   21.0667    3.6092   30.3162 H   0  0  0  0  0  0  0  0  0  0  0  0
   21.7517    4.8684   29.2337 H   0  0  0  0  0  0  0  0  0  0  0  0
   24.4769    7.9778   28.8391 H   0  0  0  0  0  0  0  0  0  0  0  0
   25.1064    7.6502   30.4892 H   0  0  0  0  0  0  0  0  0  0  0  0
   25.7522    6.7368   29.0837 H   0  0  0  0  0  0  0  0  0  0  0  0
   26.2151    5.4399   30.7737 H   0  0  0  0  0  0  0  0  0  0  0  0
   22.3768    2.5680   31.9624 H   0  0  0  0  0  0  0  0  0  0  0  0
   24.1278    0.0422   33.9145 H   0  0  0  0  0  0  0  0  0  0  0  0
   22.7922    1.1413   33.4301 H   0  0  0  0  0  0  0  0  0  0  0  0
   23.7622    0.2989   32.1747 H   0  0  0  0  0  0  0  0  0  0  0  0
   29.2319    5.0909   31.6854 H   0  0  0  0  0  0  0  0  0  0  0  0
   30.0720    3.9114   33.0419 H   0  0  0  0  0  0  0  0  0  0  0  0
   28.8532    3.5187   34.3016 H   0  0  0  0  0  0  0  0  0  0  0  0
   29.2493    2.3147   33.0287 H   0  0  0  0  0  0  0  0  0  0  0  0
  1  2  1  0  0  0  0
  2  3  1  0  0  0  0
  3  4  1  0  0  0  0
  4 10  1  0  0  0  0
  4  5  2  0  0  0  0
  5  6  1  0  0  0  0
  6  7  1  0  0  0  0
  6 13  2  0  0  0  0
  7  8  1  0  0  0  0
  8  9  2  0  0  0  0
  8 10  1  0  0  0  0
 10 11  1  0  0  0  0
 11 12  3  0  0  0  0
 13 14  1  0  0  0  0
 14 15  2  0  0  0  0
 14 16  1  0  0  0  0
 16 17  1  0  0  0  0
 17 24  2  0  0  0  0
 17 18  1  0  0  0  0
 18 19  1  0  0  0  0
 18 21  2  0  0  0  0
 19 20  1  0  0  0  0
 21 22  1  0  0  0  0
 22 23  2  0  0  0  0
 22 27  1  0  0  0  0
 23 24  1  0  0  0  0
 23 25  1  0  0  0  0
 25 26  1  0  0  0  0
 27 28  2  0  0  0  0
 28 29  1  0  0  0  0
 28 30  1  0  0  0  0
  1 31  1  0  0  0  0
  1 32  1  0  0  0  0
  1 33  1  0  0  0  0
  2 34  1  0  0  0  0
  2 35  1  0  0  0  0
  7 36  1  0  0  0  0
  7 37  1  0  0  0  0
  9 38  1  0  0  0  0
 10 39  1  0  0  0  0
 16 40  1  0  0  0  0
 16 41  1  0  0  0  0
 20 42  1  0  0  0  0
 20 43  1  0  0  0  0
 20 44  1  0  0  0  0
 21 45  1  0  0  0  0
 24 46  1  0  0  0  0
 26 47  1  0  0  0  0
 26 48  1  0  0  0  0
 26 49  1  0  0  0  0
 29 50  1  0  0  0  0
 30 51  1  0  0  0  0
 30 52  1  0  0  0  0
 30 53  1  0  0  0  0
M  END
> <i_m_stars>
0

> <r_user_dG.exp>
-10.141692

$$$$
18637-1
  -OEChem-05192314073D
 Structure written by MMmdl.
 53 54  0     1  0  0  0  0  0999 V2000
   24.0679   12.3974   30.2299 C   0  0  0  0  0  0  0  0  0  0  0  0
   23.3159   11.0783   30.4227 C   0  0  0  0  0  0  0  0  0  0  0  0
   22.2074   11.3318   31.2810 O   0  0  0  0  0  0  0  0  0  0  0  0
   21.4078   10.2815   31.6977 C   0  0  0  0  0  0  0  0  0  0  0  0
   21.7477    9.0318   31.2791 N   0  0  0  0  0  0  0  0  0  0  0  0
   20.9736    8.0017   31.6536 C   0  0  0  0  0  0  0  0  0  0  0  0
   19.8665    8.1461   32.4779 C   0  0  0  0  0  0  0  0  0  0  0  0
   19.5200    9.4177   32.8981 C   0  0  0  0  0  0  0  0  0  0  0  0
   18.3829    9.4988   33.6931 N   0  0  0  0  0  0  0  0  0  0  0  0
   20.2909   10.5235   32.5051 C   0  0  3  0  0  0  0  0  0  0  0  0
   19.9670   11.8935   32.8853 C   0  0  0  0  0  0  0  0  0  0  0  0
   19.7174   12.9843   33.1812 N   0  0  0  0  0  0  0  0  0  0  0  0
   21.4331    6.8194   31.1098 N   0  0  0  0  0  0  0  0  0  0  0  0
   20.8527    5.6189   31.0281 C   0  0  0  0  0  0  0  0  0  0  0  0
   19.7272    5.3573   31.4476 O   0  0  0  0  0  0  0  0  0  0  0  0
   21.6390    4.5479   30.2799 C   0  0  0  0  0  0  0  0  0  0  0  0
   23.0290    4.2861   30.8549 C   0  0  0  0  0  0  0  0  0  0  0  0
   24.1071    5.1197   30.5266 C   0  0  0  0  0  0  0  0  0  0  0  0
   23.8494    6.2028   29.7043 O   0  0  0  0  0  0  0  0  0  0  0  0
   24.8536    7.1989   29.5184 C   0  0  0  0  0  0  0  0  0  0  0  0
   25.3718    4.8226   31.0461 C   0  0  0  0  0  0  0  0  0  0  0  0
   25.5645    3.7381   31.9139 C   0  0  0  0  0  0  0  0  0  0  0  0
   24.4775    2.9179   32.2550 C   0  0  0  0  0  0  0  0  0  0  0  0
   23.2164    3.1999   31.7130 C   0  0  0  0  0  0  0  0  0  0  0  0
   24.7079    1.8722   33.1347 O   0  0  0  0  0  0  0  0  0  0  0  0
   23.7954    0.7759   33.1653 C   0  0  0  0  0  0  0  0  0  0  0  0
   26.8105    3.4129   32.4986 N   0  0  0  0  0  0  0  0  0  0  0  0
   28.0304    3.9580   32.3626 C   0  0  0  0  0  0  0  0  0  0  0  0
   28.3090    4.8809   31.6038 O   0  0  0  0  0  0  0  0  0  0  0  0
   29.1268    3.3864   33.2444 C   0  0  0  0  0  0  0  0  0  0  0  0
   24.9324   12.2341   29.5696 H   0  0  0  0  0  0  0  0  0  0  0  0
   23.3951   13.1399   29.7761 H   0  0  0  0  0  0  0  0  0  0  0  0
   24.4166   12.7665   31.2057 H   0  0  0  0  0  0  0  0  0  0  0  0
   22.9596   10.7050   29.4513 H   0  0  0  0  0  0  0  0  0  0  0  0
   23.9811   10.3316   30.8809 H   0  0  0  0  0  0  0  0  0  0  0  0
   19.2892    7.2862   32.7840 H   0  0  0  0  0  0  0  0  0  0  0  0
   18.1753   10.4413   33.9549 H   0  0  0  0  0  0  0  0  0  0  0  0
   20.9130   10.4158   33.4059 H   0  0  0  0  0  0  0  0  0  0  0  0
   22.3494    6.8695   30.7124 H   0  0  0  0  0  0  0  0  0  0  0  0
   21.0667    3.6092   30.3162 H   0  0  0  0  0  0  0  0  0  0  0  0
   21.7517    4.8684   29.2337 H   0  0  0  0  0  0  0  0  0  0  0  0
   24.4769    7.9778   28.8391 H   0  0  0  0  0  0  0  0  0  0  0  0
   25.1064    7.6502   30.4892 H   0  0  0  0  0  0  0  0  0  0  0  0
   25.7522    6.7368   29.0837 H   0  0  0  0  0  0  0  0  0  0  0  0
   26.2151    5.4399   30.7737 H   0  0  0  0  0  0  0  0  0  0  0  0
   22.3768    2.5680   31.9624 H   0  0  0  0  0  0  0  0  0  0  0  0
   24.1278    0.0422   33.9145 H   0  0  0  0  0  0  0  0  0  0  0  0
   22.7922    1.1413   33.4301 H   0  0  0  0  0  0  0  0  0  0  0  0
   23.7622    0.2989   32.1747 H   0  0  0  0  0  0  0  0  0  0  0  0
   26.7772    2.6361   33.1274 H   0  0  0  0  0  0  0  0  0  0  0  0
   30.0677    3.9238   33.0552 H   0  0  0  0  0  0  0  0  0  0  0  0
   28.8447    3.5020   34.3013 H   0  0  0  0  0  0  0  0  0  0  0  0
   29.2620    2.3190   33.0156 H   0  0  0  0  0  0  0  0  0  0  0  0
  1  2  1  0  0  0  0
  2  3  1  0  0  0  0
  3  4  1  0  0  0  0
  4 10  1  0  0  0  0
  4  5  2  0  0  0  0
  5  6  1  0  0  0  0
  6  7  2  0  0  0  0
  6 13  1  0  0  0  0
  7  8  1  0  0  0  0
  8  9  2  0  0  0  0
  8 10  1  0  0  0  0
 10 11  1  0  0  0  0
 11 12  3  0  0  0  0
 13 14  1  0  0  0  0
 14 15  2  0  0  0  0
 14 16  1  0  0  0  0
 16 17  1  0  0  0  0
 17 24  2  0  0  0  0
 17 18  1  0  0  0  0
 18 19  1  0  0  0  0
 18 21  2  0  0  0  0
 19 20  1  0  0  0  0
 21 22  1  0  0  0  0
 22 23  2  0  0  0  0
 22 27  1  0  0  0  0
 23 24  1  0  0  0  0
 23 25  1  0  0  0  0
 25 26  1  0  0  0  0
 27 28  1  0  0  0  0
 28 29  2  0  0  0  0
 28 30  1  0  0  0  0
  1 31  1  0  0  0  0
  1 32  1  0  0  0  0
  1 33  1  0  0  0  0
  2 34  1  0  0  0  0
  2 35  1  0  0  0  0
  7 36  1  0  0  0  0
  9 37  1  0  0  0  0
 10 38  1  0  0  0  0
 13 39  1  0  0  0  0
 16 40  1  0  0  0  0
 16 41  1  0  0  0  0
 20 42  1  0  0  0  0
 20 43  1  0  0  0  0
 20 44  1  0  0  0  0
 21 45  1  0  0  0  0
 24 46  1  0  0  0  0
 26 47  1  0  0  0  0
 26 48  1  0  0  0  0
 26 49  1  0  0  0  0
 27 50  1  0  0  0  0
 30 51  1  0  0  0  0
 30 52  1  0  0  0  0
 30 53  1  0  0  0  0
M  END
> <i_m_stars>
0

> <r_user_dG.exp>
-10.141692

$$$$
18637-1
  -OEChem-05192314073D
 Structure written by MMmdl.
 53 54  0     0  0  0  0  0  0999 V2000
   24.0679   12.3974   30.2299 C   0  0  0  0  0  0  0  0  0  0  0  0
   23.3159   11.0783   30.4227 C   0  0  0  0  0  0  0  0  0  0  0  0
   22.2074   11.3318   31.2810 O   0  0  0  0  0  0  0  0  0  0  0  0
   21.4078   10.2815   31.6977 C   0  0  0  0  0  0  0  0  0  0  0  0
   21.7477    9.0318   31.2791 N   0  0  0  0  0  0  0  0  0  0  0  0
   20.9736    8.0017   31.6536 C   0  0  0  0  0  0  0  0  0  0  0  0
   19.8665    8.1461   32.4779 C   0  0  0  0  0  0  0  0  0  0  0  0
   19.5200    9.4177   32.8981 C   0  0  0  0  0  0  0  0  0  0  0  0
   18.3829    9.4988   33.6931 N   0  0  0  0  0  0  0  0  0  0  0  0
   20.2909   10.5235   32.5051 C   0  0  0  0  0  0  0  0  0  0  0  0
   19.9670   11.8935   32.8853 C   0  0  0  0  0  0  0  0  0  0  0  0
   19.7174   12.9843   33.1812 N   0  0  0  0  0  0  0  0  0  0  0  0
   21.4331    6.8194   31.1098 N   0  0  0  0  0  0  0  0  0  0  0  0
   20.8527    5.6189   31.0281 C   0  0  0  0  0  0  0  0  0  0  0  0
   19.7272    5.3573   31.4476 O   0  0  0  0  0  0  0  0  0  0  0  0
   21.6390    4.5479   30.2799 C   0  0  0  0  0  0  0  0  0  0  0  0
   23.0290    4.2861   30.8549 C   0  0  0  0  0  0  0  0  0  0  0  0
   24.1071    5.1197   30.5266 C   0  0  0  0  0  0  0  0  0  0  0  0
   23.8494    6.2028   29.7043 O   0  0  0  0  0  0  0  0  0  0  0  0
   24.8536    7.1989   29.5184 C   0  0  0  0  0  0  0  0  0  0  0  0
   25.3718    4.8226   31.0461 C   0  0  0  0  0  0  0  0  0  0  0  0
   25.5645    3.7381   31.9139 C   0  0  0  0  0  0  0  0  0  0  0  0
   24.4775    2.9179   32.2550 C   0  0  0  0  0  0  0  0  0  0  0  0
   23.2164    3.1999   31.7130 C   0  0  0  0  0  0  0  0  0  0  0  0
   24.7079    1.8722   33.1347 O   0  0  0  0  0  0  0  0  0  0  0  0
   23.7954    0.7759   33.1653 C   0  0  0  0  0  0  0  0  0  0  0  0
   26.8105    3.4129   32.4986 N   0  0  0  0  0  0  0  0  0  0  0  0
   28.0304    3.9580   32.3626 C   0  0  0  0  0  0  0  0  0  0  0  0
   28.3090    4.8809   31.6038 O   0  0  0  0  0  0  0  0  0  0  0  0
   29.1268    3.3864   33.2444 C   0  0  0  0  0  0  0  0  0  0  0  0
   24.9324   12.2341   29.5696 H   0  0  0  0  0  0  0  0  0  0  0  0
   23.3951   13.1399   29.7761 H   0  0  0  0  0  0  0  0  0  0  0  0
   24.4166   12.7665   31.2057 H   0  0  0  0  0  0  0  0  0  0  0  0
   22.9596   10.7050   29.4513 H   0  0  0  0  0  0  0  0  0  0  0  0
   23.9811   10.3316   30.8809 H   0  0  0  0  0  0  0  0  0  0  0  0
   19.0018    7.7360   31.9357 H   0  0  0  0  0  0  0  0  0  0  0  0
   20.0523    7.5449   33.3801 H   0  0  0  0  0  0  0  0  0  0  0  0
   18.1753   10.4413   33.9549 H   0  0  0  0  0  0  0  0  0  0  0  0
   22.3494    6.8695   30.7124 H   0  0  0  0  0  0  0  0  0  0  0  0
   21.0667    3.6092   30.3162 H   0  0  0  0  0  0  0  0  0  0  0  0
   21.7517    4.8684   29.2337 H   0  0  0  0  0  0  0  0  0  0  0  0
   24.4769    7.9778   28.8391 H   0  0  0  0  0  0  0  0  0  0  0  0
   25.1064    7.6502   30.4892 H   0  0  0  0  0  0  0  0  0  0  0  0
   25.7522    6.7368   29.0837 H   0  0  0  0  0  0  0  0  0  0  0  0
   26.2151    5.4399   30.7737 H   0  0  0  0  0  0  0  0  0  0  0  0
   22.3768    2.5680   31.9624 H   0  0  0  0  0  0  0  0  0  0  0  0
   24.1278    0.0422   33.9145 H   0  0  0  0  0  0  0  0  0  0  0  0
   22.7922    1.1413   33.4301 H   0  0  0  0  0  0  0  0  0  0  0  0
   23.7622    0.2989   32.1747 H   0  0  0  0  0  0  0  0  0  0  0  0
   26.7772    2.6361   33.1274 H   0  0  0  0  0  0  0  0  0  0  0  0
   30.0677    3.9238   33.0552 H   0  0  0  0  0  0  0  0  0  0  0  0
   28.8447    3.5020   34.3013 H   0  0  0  0  0  0  0  0  0  0  0  0
   29.2620    2.3190   33.0156 H   0  0  0  0  0  0  0  0  0  0  0  0
  1  2  1  0  0  0  0
  2  3  1  0  0  0  0
  3  4  1  0  0  0  0
  4 10  2  0  0  0  0
  4  5  1  0  0  0  0
  5  6  2  0  0  0  0
  6  7  1  0  0  0  0
  6 13  1  0  0  0  0
  7  8  1  0  0  0  0
  8  9  2  0  0  0  0
  8 10  1  0  0  0  0
 10 11  1  0  0  0  0
 11 12  3  0  0  0  0
 13 14  1  0  0  0  0
 14 15  2  0  0  0  0
 14 16  1  0  0  0  0
 16 17  1  0  0  0  0
 17 24  2  0  0  0  0
 17 18  1  0  0  0  0
 18 19  1  0  0  0  0
 18 21  2  0  0  0  0
 19 20  1  0  0  0  0
 21 22  1  0  0  0  0
 22 23  2  0  0  0  0
 22 27  1  0  0  0  0
 23 24  1  0  0  0  0
 23 25  1  0  0  0  0
 25 26  1  0  0  0  0
 27 28  1  0  0  0  0
 28 29  2  0  0  0  0
 28 30  1  0  0  0  0
  1 31  1  0  0  0  0
  1 32  1  0  0  0  0
  1 33  1  0  0  0  0
  2 34  1  0  0  0  0
  2 35  1  0  0  0  0
  7 36  1  0  0  0  0
  7 37  1  0  0  0  0
  9 38  1  0  0  0  0
 13 39  1  0  0  0  0
 16 40  1  0  0  0  0
 16 41  1  0  0  0  0
 20 42  1  0  0  0  0
 20 43  1  0  0  0  0
 20 44  1  0  0  0  0
 21 45  1  0  0  0  0
 24 46  1  0  0  0  0
 26 47  1  0  0  0  0
 26 48  1  0  0  0  0
 26 49  1  0  0  0  0
 27 50  1  0  0  0  0
 30 51  1  0  0  0  0
 30 52  1  0  0  0  0
 30 53  1  0  0  0  0
M  END
> <i_m_stars>
0

> <r_user_dG.exp>
-10.141692

$$$$
18637-1
  -OEChem-05192314073D
 Structure written by MMmdl.
 53 54  0     1  0  0  0  0  0999 V2000
   24.0679   12.3974   30.2299 C   0  0  0  0  0  0  0  0  0  0  0  0
   23.3159   11.0783   30.4227 C   0  0  0  0  0  0  0  0  0  0  0  0
   22.2074   11.3318   31.2810 O   0  0  0  0  0  0  0  0  0  0  0  0
   21.4078   10.2815   31.6977 C   0  0  0  0  0  0  0  0  0  0  0  0
   21.7477    9.0318   31.2791 N   0  0  0  0  0  0  0  0  0  0  0  0
   20.9736    8.0017   31.6536 C   0  0  0  0  0  0  0  0  0  0  0  0
   19.8665    8.1461   32.4779 C   0  0  0  0  0  0  0  0  0  0  0  0
   19.5200    9.4177   32.8981 C   0  0  0  0  0  0  0  0  0  0  0  0
   18.3829    9.4988   33.6931 N   0  0  0  0  0  0  0  0  0  0  0  0
   20.2909   10.5235   32.5051 C   0  0  3  0  0  0  0  0  0  0  0  0
   19.9670   11.8935   32.8853 C   0  0  0  0  0  0  0  0  0  0  0  0
   19.7174   12.9843   33.1812 N   0  0  0  0  0  0  0  0  0  0  0  0
   21.4331    6.8194   31.1098 N   0  0  0  0  0  0  0  0  0  0  0  0
   20.8527    5.6189   31.0281 C   0  0  0  0  0  0  0  0  0  0  0  0
   19.7272    5.3573   31.4476 O   0  0  0  0  0  0  0  0  0  0  0  0
   21.6390    4.5479   30.2799 C   0  0  0  0  0  0  0  0  0  0  0  0
   23.0290    4.2861   30.8549 C   0  0  0  0  0  0  0  0  0  0  0  0
   24.1071    5.1197   30.5266 C   0  0  0  0  0  0  0  0  0  0  0  0
   23.8494    6.2028   29.7043 O   0  0  0  0  0  0  0  0  0  0  0  0
   24.8536    7.1989   29.5184 C   0  0  0  0  0  0  0  0  0  0  0  0
   25.3718    4.8226   31.0461 C   0  0  0  0  0  0  0  0  0  0  0  0
   25.5645    3.7381   31.9139 C   0  0  0  0  0  0  0  0  0  0  0  0
   24.4775    2.9179   32.2550 C   0  0  0  0  0  0  0  0  0  0  0  0
   23.2164    3.1999   31.7130 C   0  0  0  0  0  0  0  0  0  0  0  0
   24.7079    1.8722   33.1347 O   0  0  0  0  0  0  0  0  0  0  0  0
   23.7954    0.7759   33.1653 C   0  0  0  0  0  0  0  0  0  0  0  0
   26.8105    3.4129   32.4986 N   0  0  0  0  0  0  0  0  0  0  0  0
   28.0304    3.9580   32.3626 C   0  0  0  0  0  0  0  0  0  0  0  0
   28.3090    4.8809   31.6038 O   0  0  0  0  0  0  0  0  0  0  0  0
   29.1268    3.3864   33.2444 C   0  0  0  0  0  0  0  0  0  0  0  0
   24.9324   12.2341   29.5696 H   0  0  0  0  0  0  0  0  0  0  0  0
   23.3951   13.1399   29.7761 H   0  0  0  0  0  0  0  0  0  0  0  0
   24.4166   12.7665   31.2057 H   0  0  0  0  0  0  0  0  0  0  0  0
   22.9596   10.7050   29.4513 H   0  0  0  0  0  0  0  0  0  0  0  0
   23.9811   10.3316   30.8809 H   0  0  0  0  0  0  0  0  0  0  0  0
   19.2892    7.2862   32.7840 H   0  0  0  0  0  0  0  0  0  0  0  0
   18.2177   10.4529   33.9431 H   0  0  0  0  0  0  0  0  0  0  0  0
   17.5962    9.1461   33.1864 H   0  0  0  0  0  0  0  0  0  0  0  0
   20.9130   10.4158   33.4059 H   0  0  0  0  0  0  0  0  0  0  0  0
   21.0667    3.6092   30.3162 H   0  0  0  0  0  0  0  0  0  0  0  0
   21.7517    4.8684   29.2337 H   0  0  0  0  0  0  0  0  0  0  0  0
   24.4769    7.9778   28.8391 H   0  0  0  0  0  0  0  0  0  0  0  0
   25.1064    7.6502   30.4892 H   0  0  0  0  0  0  0  0  0  0  0  0
   25.7522    6.7368   29.0837 H   0  0  0  0  0  0  0  0  0  0  0  0
   26.2151    5.4399   30.7737 H   0  0  0  0  0  0  0  0  0  0  0  0
   22.3768    2.5680   31.9624 H   0  0  0  0  0  0  0  0  0  0  0  0
   24.1278    0.0422   33.9145 H   0  0  0  0  0  0  0  0  0  0  0  0
   22.7922    1.1413   33.4301 H   0  0  0  0  0  0  0  0  0  0  0  0
   23.7622    0.2989   32.1747 H   0  0  0  0  0  0  0  0  0  0  0  0
   26.7772    2.6361   33.1274 H   0  0  0  0  0  0  0  0  0  0  0  0
   30.0677    3.9238   33.0552 H   0  0  0  0  0  0  0  0  0  0  0  0
   28.8447    3.5020   34.3013 H   0  0  0  0  0  0  0  0  0  0  0  0
   29.2620    2.3190   33.0156 H   0  0  0  0  0  0  0  0  0  0  0  0
  1  2  1  0  0  0  0
  2  3  1  0  0  0  0
  3  4  1  0  0  0  0
  4 10  1  0  0  0  0
  4  5  2  0  0  0  0
  5  6  1  0  0  0  0
  6  7  1  0  0  0  0
  6 13  2  0  0  0  0
  7  8  2  0  0  0  0
  8  9  1  0  0  0  0
  8 10  1  0  0  0  0
 10 11  1  0  0  0  0
 11 12  3  0  0  0  0
 13 14  1  0  0  0  0
 14 15  2  0  0  0  0
 14 16  1  0  0  0  0
 16 17  1  0  0  0  0
 17 24  2  0  0  0  0
 17 18  1  0  0  0  0
 18 19  1  0  0  0  0
 18 21  2  0  0  0  0
 19 20  1  0  0  0  0
 21 22  1  0  0  0  0
 22 23  2  0  0  0  0
 22 27  1  0  0  0  0
 23 24  1  0  0  0  0
 23 25  1  0  0  0  0
 25 26  1  0  0  0  0
 27 28  1  0  0  0  0
 28 29  2  0  0  0  0
 28 30  1  0  0  0  0
  1 31  1  0  0  0  0
  1 32  1  0  0  0  0
  1 33  1  0  0  0  0
  2 34  1  0  0  0  0
  2 35  1  0  0  0  0
  7 36  1  0  0  0  0
  9 37  1  0  0  0  0
  9 38  1  0  0  0  0
 10 39  1  0  0  0  0
 16 40  1  0  0  0  0
 16 41  1  0  0  0  0
 20 42  1  0  0  0  0
 20 43  1  0  0  0  0
 20 44  1  0  0  0  0
 21 45  1  0  0  0  0
 24 46  1  0  0  0  0
 26 47  1  0  0  0  0
 26 48  1  0  0  0  0
 26 49  1  0  0  0  0
 27 50  1  0  0  0  0
 30 51  1  0  0  0  0
 30 52  1  0  0  0  0
 30 53  1  0  0  0  0
M  END
> <i_m_stars>
0

> <r_user_dG.exp>
-10.141692

$$$$
18637-1
  -OEChem-05192314073D
 Structure written by MMmdl.
 53 54  0     0  0  0  0  0  0999 V2000
   24.0679   12.3974   30.2299 C   0  0  0  0  0  0  0  0  0  0  0  0
   23.3159   11.0783   30.4227 C   0  0  0  0  0  0  0  0  0  0  0  0
   22.2074   11.3318   31.2810 O   0  0  0  0  0  0  0  0  0  0  0  0
   21.4078   10.2815   31.6977 C   0  0  0  0  0  0  0  0  0  0  0  0
   21.7477    9.0318   31.2791 N   0  0  0  0  0  0  0  0  0  0  0  0
   20.9736    8.0017   31.6536 C   0  0  0  0  0  0  0  0  0  0  0  0
   19.8665    8.1461   32.4779 C   0  0  0  0  0  0  0  0  0  0  0  0
   19.5200    9.4177   32.8981 C   0  0  0  0  0  0  0  0  0  0  0  0
   18.3829    9.4988   33.6931 N   0  0  0  0  0  0  0  0  0  0  0  0
   20.2909   10.5235   32.5051 C   0  0  0  0  0  0  0  0  0  0  0  0
   19.9670   11.8935   32.8853 C   0  0  0  0  0  0  0  0  0  0  0  0
   19.7174   12.9843   33.1812 N   0  0  0  0  0  0  0  0  0  0  0  0
   21.4331    6.8194   31.1098 N   0  0  0  0  0  0  0  0  0  0  0  0
   20.8527    5.6189   31.0281 C   0  0  0  0  0  0  0  0  0  0  0  0
   19.7272    5.3573   31.4476 O   0  0  0  0  0  0  0  0  0  0  0  0
   21.6390    4.5479   30.2799 C   0  0  0  0  0  0  0  0  0  0  0  0
   23.0290    4.2861   30.8549 C   0  0  0  0  0  0  0  0  0  0  0  0
   24.1071    5.1197   30.5266 C   0  0  0  0  0  0  0  0  0  0  0  0
   23.8494    6.2028   29.7043 O   0  0  0  0  0  0  0  0  0  0  0  0
   24.8536    7.1989   29.5184 C   0  0  0  0  0  0  0  0  0  0  0  0
   25.3718    4.8226   31.0461 C   0  0  0  0  0  0  0  0  0  0  0  0
   25.5645    3.7381   31.9139 C   0  0  0  0  0  0  0  0  0  0  0  0
   24.4775    2.9179   32.2550 C   0  0  0  0  0  0  0  0  0  0  0  0
   23.2164    3.1999   31.7130 C   0  0  0  0  0  0  0  0  0  0  0  0
   24.7079    1.8722   33.1347 O   0  0  0  0  0  0  0  0  0  0  0  0
   23.7954    0.7759   33.1653 C   0  0  0  0  0  0  0  0  0  0  0  0
   26.8105    3.4129   32.4986 N   0  0  0  0  0  0  0  0  0  0  0  0
   28.0304    3.9580   32.3626 C   0  0  0  0  0  0  0  0  0  0  0  0
   28.3090    4.8809   31.6038 O   0  0  0  0  0  0  0  0  0  0  0  0
   29.1268    3.3864   33.2444 C   0  0  0  0  0  0  0  0  0  0  0  0
   24.9324   12.2341   29.5696 H   0  0  0  0  0  0  0  0  0  0  0  0
   23.3951   13.1399   29.7761 H   0  0  0  0  0  0  0  0  0  0  0  0
   24.4166   12.7665   31.2057 H   0  0  0  0  0  0  0  0  0  0  0  0
   22.9596   10.7050   29.4513 H   0  0  0  0  0  0  0  0  0  0  0  0
   23.9811   10.3316   30.8809 H   0  0  0  0  0  0  0  0  0  0  0  0
   19.0018    7.7360   31.9357 H   0  0  0  0  0  0  0  0  0  0  0  0
   20.0523    7.5449   33.3801 H   0  0  0  0  0  0  0  0  0  0  0  0
   18.2177   10.4529   33.9431 H   0  0  0  0  0  0  0  0  0  0  0  0
   17.5962    9.1461   33.1864 H   0  0  0  0  0  0  0  0  0  0  0  0
   21.0667    3.6092   30.3162 H   0  0  0  0  0  0  0  0  0  0  0  0
   21.7517    4.8684   29.2337 H   0  0  0  0  0  0  0  0  0  0  0  0
   24.4769    7.9778   28.8391 H   0  0  0  0  0  0  0  0  0  0  0  0
   25.1064    7.6502   30.4892 H   0  0  0  0  0  0  0  0  0  0  0  0
   25.7522    6.7368   29.0837 H   0  0  0  0  0  0  0  0  0  0  0  0
   26.2151    5.4399   30.7737 H   0  0  0  0  0  0  0  0  0  0  0  0
   22.3768    2.5680   31.9624 H   0  0  0  0  0  0  0  0  0  0  0  0
   24.1278    0.0422   33.9145 H   0  0  0  0  0  0  0  0  0  0  0  0
   22.7922    1.1413   33.4301 H   0  0  0  0  0  0  0  0  0  0  0  0
   23.7622    0.2989   32.1747 H   0  0  0  0  0  0  0  0  0  0  0  0
   26.7772    2.6361   33.1274 H   0  0  0  0  0  0  0  0  0  0  0  0
   30.0677    3.9238   33.0552 H   0  0  0  0  0  0  0  0  0  0  0  0
   28.8447    3.5020   34.3013 H   0  0  0  0  0  0  0  0  0  0  0  0
   29.2620    2.3190   33.0156 H   0  0  0  0  0  0  0  0  0  0  0  0
  1  2  1  0  0  0  0
  2  3  1  0  0  0  0
  3  4  1  0  0  0  0
  4 10  1  0  0  0  0
  4  5  2  0  0  0  0
  5  6  1  0  0  0  0
  6  7  1  0  0  0  0
  6 13  2  0  0  0  0
  7  8  1  0  0  0  0
  8  9  1  0  0  0  0
  8 10  2  0  0  0  0
 10 11  1  0  0  0  0
 11 12  3  0  0  0  0
 13 14  1  0  0  0  0
 14 15  2  0  0  0  0
 14 16  1  0  0  0  0
 16 17  1  0  0  0  0
 17 24  2  0  0  0  0
 17 18  1  0  0  0  0
 18 19  1  0  0  0  0
 18 21  2  0  0  0  0
 19 20  1  0  0  0  0
 21 22  1  0  0  0  0
 22 23  2  0  0  0  0
 22 27  1  0  0  0  0
 23 24  1  0  0  0  0
 23 25  1  0  0  0  0
 25 26  1  0  0  0  0
 27 28  1  0  0  0  0
 28 29  2  0  0  0  0
 28 30  1  0  0  0  0
  1 31  1  0  0  0  0
  1 32  1  0  0  0  0
  1 33  1  0  0  0  0
  2 34  1  0  0  0  0
  2 35  1  0  0  0  0
  7 36  1  0  0  0  0
  7 37  1  0  0  0  0
  9 38  1  0  0  0  0
  9 39  1  0  0  0  0
 16 40  1  0  0  0  0
 16 41  1  0  0  0  0
 20 42  1  0  0  0  0
 20 43  1  0  0  0  0
 20 44  1  0  0  0  0
 21 45  1  0  0  0  0
 24 46  1  0  0  0  0
 26 47  1  0  0  0  0
 26 48  1  0  0  0  0
 26 49  1  0  0  0  0
 27 50  1  0  0  0  0
 30 51  1  0  0  0  0
 30 52  1  0  0  0  0
 30 53  1  0  0  0  0
M  END
> <i_m_stars>
0

> <r_user_dG.exp>
-10.141692

$$$$
18637-1
  -OEChem-05192314073D
 Structure written by MMmdl.
 53 54  0     0  0  0  0  0  0999 V2000
   24.0679   12.3974   30.2299 C   0  0  0  0  0  0  0  0  0  0  0  0
   23.3159   11.0783   30.4227 C   0  0  0  0  0  0  0  0  0  0  0  0
   22.2074   11.3318   31.2810 O   0  0  0  0  0  0  0  0  0  0  0  0
   21.4078   10.2815   31.6977 C   0  0  0  0  0  0  0  0  0  0  0  0
   21.7477    9.0318   31.2791 N   0  0  0  0  0  0  0  0  0  0  0  0
   20.9736    8.0017   31.6536 C   0  0  0  0  0  0  0  0  0  0  0  0
   19.8665    8.1461   32.4779 C   0  0  0  0  0  0  0  0  0  0  0  0
   19.5200    9.4177   32.8981 C   0  0  0  0  0  0  0  0  0  0  0  0
   18.3829    9.4988   33.6931 N   0  0  0  0  0  0  0  0  0  0  0  0
   20.2909   10.5235   32.5051 C   0  0  0  0  0  0  0  0  0  0  0  0
   19.9670   11.8935   32.8853 C   0  0  0  0  0  0  0  0  0  0  0  0
   19.7174   12.9843   33.1812 N   0  0  0  0  0  0  0  0  0  0  0  0
   21.4331    6.8194   31.1098 N   0  0  0  0  0  0  0  0  0  0  0  0
   20.8527    5.6189   31.0281 C   0  0  0  0  0  0  0  0  0  0  0  0
   19.7272    5.3573   31.4476 O   0  0  0  0  0  0  0  0  0  0  0  0
   21.6390    4.5479   30.2799 C   0  0  0  0  0  0  0  0  0  0  0  0
   23.0290    4.2861   30.8549 C   0  0  0  0  0  0  0  0  0  0  0  0
   24.1071    5.1197   30.5266 C   0  0  0  0  0  0  0  0  0  0  0  0
   23.8494    6.2028   29.7043 O   0  0  0  0  0  0  0  0  0  0  0  0
   24.8536    7.1989   29.5184 C   0  0  0  0  0  0  0  0  0  0  0  0
   25.3718    4.8226   31.0461 C   0  0  0  0  0  0  0  0  0  0  0  0
   25.5645    3.7381   31.9139 C   0  0  0  0  0  0  0  0  0  0  0  0
   24.4775    2.9179   32.2550 C   0  0  0  0  0  0  0  0  0  0  0  0
   23.2164    3.1999   31.7130 C   0  0  0  0  0  0  0  0  0  0  0  0
   24.7079    1.8722   33.1347 O   0  0  0  0  0  0  0  0  0  0  0  0
   23.7954    0.7759   33.1653 C   0  0  0  0  0  0  0  0  0  0  0  0
   26.8105    3.4129   32.4986 N   0  0  0  0  0  0  0  0  0  0  0  0
   28.0304    3.9580   32.3626 C   0  0  0  0  0  0  0  0  0  0  0  0
   28.3090    4.8809   31.6038 O   0  0  0  0  0  0  0  0  0  0  0  0
   29.1268    3.3864   33.2444 C   0  0  0  0  0  0  0  0  0  0  0  0
   24.9324   12.2341   29.5696 H   0  0  0  0  0  0  0  0  0  0  0  0
   23.3951   13.1399   29.7761 H   0  0  0  0  0  0  0  0  0  0  0  0
   24.4166   12.7665   31.2057 H   0  0  0  0  0  0  0  0  0  0  0  0
   22.9596   10.7050   29.4513 H   0  0  0  0  0  0  0  0  0  0  0  0
   23.9811   10.3316   30.8809 H   0  0  0  0  0  0  0  0  0  0  0  0
   22.5544    8.8849   30.7066 H   0  0  0  0  0  0  0  0  0  0  0  0
   19.0018    7.7360   31.9357 H   0  0  0  0  0  0  0  0  0  0  0  0
   20.0523    7.5449   33.3801 H   0  0  0  0  0  0  0  0  0  0  0  0
   18.1753   10.4413   33.9549 H   0  0  0  0  0  0  0  0  0  0  0  0
   21.0667    3.6092   30.3162 H   0  0  0  0  0  0  0  0  0  0  0  0
   21.7517    4.8684   29.2337 H   0  0  0  0  0  0  0  0  0  0  0  0
   24.4769    7.9778   28.8391 H   0  0  0  0  0  0  0  0  0  0  0  0
   25.1064    7.6502   30.4892 H   0  0  0  0  0  0  0  0  0  0  0  0
   25.7522    6.7368   29.0837 H   0  0  0  0  0  0  0  0  0  0  0  0
   26.2151    5.4399   30.7737 H   0  0  0  0  0  0  0  0  0  0  0  0
   22.3768    2.5680   31.9624 H   0  0  0  0  0  0  0  0  0  0  0  0
   24.1278    0.0422   33.9145 H   0  0  0  0  0  0  0  0  0  0  0  0
   22.7922    1.1413   33.4301 H   0  0  0  0  0  0  0  0  0  0  0  0
   23.7622    0.2989   32.1747 H   0  0  0  0  0  0  0  0  0  0  0  0
   26.7772    2.6361   33.1274 H   0  0  0  0  0  0  0  0  0  0  0  0
   30.0677    3.9238   33.0552 H   0  0  0  0  0  0  0  0  0  0  0  0
   28.8447    3.5020   34.3013 H   0  0  0  0  0  0  0  0  0  0  0  0
   29.2620    2.3190   33.0156 H   0  0  0  0  0  0  0  0  0  0  0  0
  1  2  1  0  0  0  0
  2  3  1  0  0  0  0
  3  4  1  0  0  0  0
  4 10  2  0  0  0  0
  4  5  1  0  0  0  0
  5  6  1  0  0  0  0
  6  7  1  0  0  0  0
  6 13  2  0  0  0  0
  7  8  1  0  0  0  0
  8  9  2  0  0  0  0
  8 10  1  0  0  0  0
 10 11  1  0  0  0  0
 11 12  3  0  0  0  0
 13 14  1  0  0  0  0
 14 15  2  0  0  0  0
 14 16  1  0  0  0  0
 16 17  1  0  0  0  0
 17 24  2  0  0  0  0
 17 18  1  0  0  0  0
 18 19  1  0  0  0  0
 18 21  2  0  0  0  0
 19 20  1  0  0  0  0
 21 22  1  0  0  0  0
 22 23  2  0  0  0  0
 22 27  1  0  0  0  0
 23 24  1  0  0  0  0
 23 25  1  0  0  0  0
 25 26  1  0  0  0  0
 27 28  1  0  0  0  0
 28 29  2  0  0  0  0
 28 30  1  0  0  0  0
  1 31  1  0  0  0  0
  1 32  1  0  0  0  0
  1 33  1  0  0  0  0
  2 34  1  0  0  0  0
  2 35  1  0  0  0  0
  5 36  1  0  0  0  0
  7 37  1  0  0  0  0
  7 38  1  0  0  0  0
  9 39  1  0  0  0  0
 16 40  1  0  0  0  0
 16 41  1  0  0  0  0
 20 42  1  0  0  0  0
 20 43  1  0  0  0  0
 20 44  1  0  0  0  0
 21 45  1  0  0  0  0
 24 46  1  0  0  0  0
 26 47  1  0  0  0  0
 26 48  1  0  0  0  0
 26 49  1  0  0  0  0
 27 50  1  0  0  0  0
 30 51  1  0  0  0  0
 30 52  1  0  0  0  0
 30 53  1  0  0  0  0
M  END
> <i_m_stars>
0

> <r_user_dG.exp>
-10.141692

$$$$
18637-1
  -OEChem-05192314073D
 Structure written by MMmdl.
 53 54  0     1  0  0  0  0  0999 V2000
   24.0679   12.3974   30.2299 C   0  0  0  0  0  0  0  0  0  0  0  0
   23.3159   11.0783   30.4227 C   0  0  0  0  0  0  0  0  0  0  0  0
   22.2074   11.3318   31.2810 O   0  0  0  0  0  0  0  0  0  0  0  0
   21.4078   10.2815   31.6977 C   0  0  0  0  0  0  0  0  0  0  0  0
   21.7477    9.0318   31.2791 N   0  0  0  0  0  0  0  0  0  0  0  0
   20.9736    8.0017   31.6536 C   0  0  0  0  0  0  0  0  0  0  0  0
   19.8665    8.1461   32.4779 C   0  0  0  0  0  0  0  0  0  0  0  0
   19.5200    9.4177   32.8981 C   0  0  0  0  0  0  0  0  0  0  0  0
   18.3829    9.4988   33.6931 N   0  0  0  0  0  0  0  0  0  0  0  0
   20.2909   10.5235   32.5051 C   0  0  3  0  0  0  0  0  0  0  0  0
   19.9670   11.8935   32.8853 C   0  0  0  0  0  0  0  0  0  0  0  0
   19.7174   12.9843   33.1812 N   0  0  0  0  0  0  0  0  0  0  0  0
   21.4331    6.8194   31.1098 N   0  0  0  0  0  0  0  0  0  0  0  0
   20.8527    5.6189   31.0281 C   0  0  0  0  0  0  0  0  0  0  0  0
   19.7272    5.3573   31.4476 O   0  0  0  0  0  0  0  0  0  0  0  0
   21.6390    4.5479   30.2799 C   0  0  0  0  0  0  0  0  0  0  0  0
   23.0290    4.2861   30.8549 C   0  0  0  0  0  0  0  0  0  0  0  0
   24.1071    5.1197   30.5266 C   0  0  0  0  0  0  0  0  0  0  0  0
   23.8494    6.2028   29.7043 O   0  0  0  0  0  0  0  0  0  0  0  0
   24.8536    7.1989   29.5184 C   0  0  0  0  0  0  0  0  0  0  0  0
   25.3718    4.8226   31.0461 C   0  0  0  0  0  0  0  0  0  0  0  0
   25.5645    3.7381   31.9139 C   0  0  0  0  0  0  0  0  0  0  0  0
   24.4775    2.9179   32.2550 C   0  0  0  0  0  0  0  0  0  0  0  0
   23.2164    3.1999   31.7130 C   0  0  0  0  0  0  0  0  0  0  0  0
   24.7079    1.8722   33.1347 O   0  0  0  0  0  0  0  0  0  0  0  0
   23.7954    0.7759   33.1653 C   0  0  0  0  0  0  0  0  0  0  0  0
   26.8105    3.4129   32.4986 N   0  0  0  0  0  0  0  0  0  0  0  0
   28.0304    3.9580   32.3626 C   0  0  0  0  0  0  0  0  0  0  0  0
   28.3090    4.8809   31.6038 O   0  0  0  0  0  0  0  0  0  0  0  0
   29.1268    3.3864   33.2444 C   0  0  0  0  0  0  0  0  0  0  0  0
   24.9324   12.2341   29.5696 H   0  0  0  0  0  0  0  0  0  0  0  0
   23.3951   13.1399   29.7761 H   0  0  0  0  0  0  0  0  0  0  0  0
   24.4166   12.7665   31.2057 H   0  0  0  0  0  0  0  0  0  0  0  0
   22.9596   10.7050   29.4513 H   0  0  0  0  0  0  0  0  0  0  0  0
   23.9811   10.3316   30.8809 H   0  0  0  0  0  0  0  0  0  0  0  0
   19.2892    7.2862   32.7840 H   0  0  0  0  0  0  0  0  0  0  0  0
   18.1753   10.4413   33.9549 H   0  0  0  0  0  0  0  0  0  0  0  0
   20.9130   10.4158   33.4059 H   0  0  0  0  0  0  0  0  0  0  0  0
   22.3494    6.8695   30.7124 H   0  0  0  0  0  0  0  0  0  0  0  0
   21.0667    3.6092   30.3162 H   0  0  0  0  0  0  0  0  0  0  0  0
   21.7517    4.8684   29.2337 H   0  0  0  0  0  0  0  0  0  0  0  0
   24.4769    7.9778   28.8391 H   0  0  0  0  0  0  0  0  0  0  0  0
   25.1064    7.6502   30.4892 H   0  0  0  0  0  0  0  0  0  0  0  0
   25.7522    6.7368   29.0837 H   0  0  0  0  0  0  0  0  0  0  0  0
   26.2151    5.4399   30.7737 H   0  0  0  0  0  0  0  0  0  0  0  0
   22.3768    2.5680   31.9624 H   0  0  0  0  0  0  0  0  0  0  0  0
   24.1278    0.0422   33.9145 H   0  0  0  0  0  0  0  0  0  0  0  0
   22.7922    1.1413   33.4301 H   0  0  0  0  0  0  0  0  0  0  0  0
   23.7622    0.2989   32.1747 H   0  0  0  0  0  0  0  0  0  0  0  0
   29.2319    5.0909   31.6854 H   0  0  0  0  0  0  0  0  0  0  0  0
   30.0720    3.9114   33.0419 H   0  0  0  0  0  0  0  0  0  0  0  0
   28.8532    3.5187   34.3016 H   0  0  0  0  0  0  0  0  0  0  0  0
   29.2493    2.3147   33.0287 H   0  0  0  0  0  0  0  0  0  0  0  0
  1  2  1  0  0  0  0
  2  3  1  0  0  0  0
  3  4  1  0  0  0  0
  4 10  1  0  0  0  0
  4  5  2  0  0  0  0
  5  6  1  0  0  0  0
  6  7  2  0  0  0  0
  6 13  1  0  0  0  0
  7  8  1  0  0  0  0
  8  9  2  0  0  0  0
  8 10  1  0  0  0  0
 10 11  1  0  0  0  0
 11 12  3  0  0  0  0
 13 14  1  0  0  0  0
 14 15  2  0  0  0  0
 14 16  1  0  0  0  0
 16 17  1  0  0  0  0
 17 24  2  0  0  0  0
 17 18  1  0  0  0  0
 18 19  1  0  0  0  0
 18 21  2  0  0  0  0
 19 20  1  0  0  0  0
 21 22  1  0  0  0  0
 22 23  2  0  0  0  0
 22 27  1  0  0  0  0
 23 24  1  0  0  0  0
 23 25  1  0  0  0  0
 25 26  1  0  0  0  0
 27 28  2  0  0  0  0
 28 29  1  0  0  0  0
 28 30  1  0  0  0  0
  1 31  1  0  0  0  0
  1 32  1  0  0  0  0
  1 33  1  0  0  0  0
  2 34  1  0  0  0  0
  2 35  1  0  0  0  0
  7 36  1  0  0  0  0
  9 37  1  0  0  0  0
 10 38  1  0  0  0  0
 13 39  1  0  0  0  0
 16 40  1  0  0  0  0
 16 41  1  0  0  0  0
 20 42  1  0  0  0  0
 20 43  1  0  0  0  0
 20 44  1  0  0  0  0
 21 45  1  0  0  0  0
 24 46  1  0  0  0  0
 26 47  1  0  0  0  0
 26 48  1  0  0  0  0
 26 49  1  0  0  0  0
 29 50  1  0  0  0  0
 30 51  1  0  0  0  0
 30 52  1  0  0  0  0
 30 53  1  0  0  0  0
M  END
> <i_m_stars>
0

> <r_user_dG.exp>
-10.141692

$$$$
18637-1
  -OEChem-05192314073D
 Structure written by MMmdl.
 53 54  0     1  0  0  0  0  0999 V2000
   24.0679   12.3974   30.2299 C   0  0  0  0  0  0  0  0  0  0  0  0
   23.3159   11.0783   30.4227 C   0  0  0  0  0  0  0  0  0  0  0  0
   22.2074   11.3318   31.2810 O   0  0  0  0  0  0  0  0  0  0  0  0
   21.4078   10.2815   31.6977 C   0  0  0  0  0  0  0  0  0  0  0  0
   21.7477    9.0318   31.2791 N   0  0  0  0  0  0  0  0  0  0  0  0
   20.9736    8.0017   31.6536 C   0  0  0  0  0  0  0  0  0  0  0  0
   19.8665    8.1461   32.4779 C   0  0  0  0  0  0  0  0  0  0  0  0
   19.5200    9.4177   32.8981 C   0  0  0  0  0  0  0  0  0  0  0  0
   18.3829    9.4988   33.6931 N   0  0  0  0  0  0  0  0  0  0  0  0
   20.2909   10.5235   32.5051 C   0  0  3  0  0  0  0  0  0  0  0  0
   19.9670   11.8935   32.8853 C   0  0  0  0  0  0  0  0  0  0  0  0
   19.7174   12.9843   33.1812 N   0  0  0  0  0  0  0  0  0  0  0  0
   21.4331    6.8194   31.1098 N   0  0  0  0  0  0  0  0  0  0  0  0
   20.8527    5.6189   31.0281 C   0  0  0  0  0  0  0  0  0  0  0  0
   19.7272    5.3573   31.4476 O   0  0  0  0  0  0  0  0  0  0  0  0
   21.6390    4.5479   30.2799 C   0  0  0  0  0  0  0  0  0  0  0  0
   23.0290    4.2861   30.8549 C   0  0  0  0  0  0  0  0  0  0  0  0
   24.1071    5.1197   30.5266 C   0  0  0  0  0  0  0  0  0  0  0  0
   23.8494    6.2028   29.7043 O   0  0  0  0  0  0  0  0  0  0  0  0
   24.8536    7.1989   29.5184 C   0  0  0  0  0  0  0  0  0  0  0  0
   25.3718    4.8226   31.0461 C   0  0  0  0  0  0  0  0  0  0  0  0
   25.5645    3.7381   31.9139 C   0  0  0  0  0  0  0  0  0  0  0  0
   24.4775    2.9179   32.2550 C   0  0  0  0  0  0  0  0  0  0  0  0
   23.2164    3.1999   31.7130 C   0  0  0  0  0  0  0  0  0  0  0  0
   24.7079    1.8722   33.1347 O   0  0  0  0  0  0  0  0  0  0  0  0
   23.7954    0.7759   33.1653 C   0  0  0  0  0  0  0  0  0  0  0  0
   26.8105    3.4129   32.4986 N   0  0  0  0  0  0  0  0  0  0  0  0
   28.0304    3.9580   32.3626 C   0  0  0  0  0  0  0  0  0  0  0  0
   28.3090    4.8809   31.6038 O   0  0  0  0  0  0  0  0  0  0  0  0
   29.1268    3.3864   33.2444 C   0  0  0  0  0  0  0  0  0  0  0  0
   24.9324   12.2341   29.5696 H   0  0  0  0  0  0  0  0  0  0  0  0
   23.3951   13.1399   29.7761 H   0  0  0  0  0  0  0  0  0  0  0  0
   24.4166   12.7665   31.2057 H   0  0  0  0  0  0  0  0  0  0  0  0
   22.9596   10.7050   29.4513 H   0  0  0  0  0  0  0  0  0  0  0  0
   23.9811   10.3316   30.8809 H   0  0  0  0  0  0  0  0  0  0  0  0
   19.2892    7.2862   32.7840 H   0  0  0  0  0  0  0  0  0  0  0  0
   18.1753   10.4413   33.9549 H   0  0  0  0  0  0  0  0  0  0  0  0
   20.9130   10.4158   33.4059 H   0  0  0  0  0  0  0  0  0  0  0  0
   19.5301    4.4435   31.2783 H   0  0  0  0  0  0  0  0  0  0  0  0
   21.0667    3.6092   30.3162 H   0  0  0  0  0  0  0  0  0  0  0  0
   21.7517    4.8684   29.2337 H   0  0  0  0  0  0  0  0  0  0  0  0
   24.4769    7.9778   28.8391 H   0  0  0  0  0  0  0  0  0  0  0  0
   25.1064    7.6502   30.4892 H   0  0  0  0  0  0  0  0  0  0  0  0
   25.7522    6.7368   29.0837 H   0  0  0  0  0  0  0  0  0  0  0  0
   26.2151    5.4399   30.7737 H   0  0  0  0  0  0  0  0  0  0  0  0
   22.3768    2.5680   31.9624 H   0  0  0  0  0  0  0  0  0  0  0  0
   24.1278    0.0422   33.9145 H   0  0  0  0  0  0  0  0  0  0  0  0
   22.7922    1.1413   33.4301 H   0  0  0  0  0  0  0  0  0  0  0  0
   23.7622    0.2989   32.1747 H   0  0  0  0  0  0  0  0  0  0  0  0
   26.7772    2.6361   33.1274 H   0  0  0  0  0  0  0  0  0  0  0  0
   30.0677    3.9238   33.0552 H   0  0  0  0  0  0  0  0  0  0  0  0
   28.8447    3.5020   34.3013 H   0  0  0  0  0  0  0  0  0  0  0  0
   29.2620    2.3190   33.0156 H   0  0  0  0  0  0  0  0  0  0  0  0
  1  2  1  0  0  0  0
  2  3  1  0  0  0  0
  3  4  1  0  0  0  0
  4 10  1  0  0  0  0
  4  5  2  0  0  0  0
  5  6  1  0  0  0  0
  6  7  2  0  0  0  0
  6 13  1  0  0  0  0
  7  8  1  0  0  0  0
  8  9  2  0  0  0  0
  8 10  1  0  0  0  0
 10 11  1  0  0  0  0
 11 12  3  0  0  0  0
 13 14  2  0  0  0  0
 14 15  1  0  0  0  0
 14 16  1  0  0  0  0
 16 17  1  0  0  0  0
 17 24  2  0  0  0  0
 17 18  1  0  0  0  0
 18 19  1  0  0  0  0
 18 21  2  0  0  0  0
 19 20  1  0  0  0  0
 21 22  1  0  0  0  0
 22 23  2  0  0  0  0
 22 27  1  0  0  0  0
 23 24  1  0  0  0  0
 23 25  1  0  0  0  0
 25 26  1  0  0  0  0
 27 28  1  0  0  0  0
 28 29  2  0  0  0  0
 28 30  1  0  0  0  0
  1 31  1  0  0  0  0
  1 32  1  0  0  0  0
  1 33  1  0  0  0  0
  2 34  1  0  0  0  0
  2 35  1  0  0  0  0
  7 36  1  0  0  0  0
  9 37  1  0  0  0  0
 10 38  1  0  0  0  0
 15 39  1  0  0  0  0
 16 40  1  0  0  0  0
 16 41  1  0  0  0  0
 20 42  1  0  0  0  0
 20 43  1  0  0  0  0
 20 44  1  0  0  0  0
 21 45  1  0  0  0  0
 24 46  1  0  0  0  0
 26 47  1  0  0  0  0
 26 48  1  0  0  0  0
 26 49  1  0  0  0  0
 27 50  1  0  0  0  0
 30 51  1  0  0  0  0
 30 52  1  0  0  0  0
 30 53  1  0  0  0  0
M  END
> <i_m_stars>
0

> <r_user_dG.exp>
-10.141692

$$$$
18637-1
  -OEChem-05192314073D
 Structure written by MMmdl.
 53 54  0     0  0  0  0  0  0999 V2000
   24.0679   12.3974   30.2299 C   0  0  0  0  0  0  0  0  0  0  0  0
   23.3159   11.0783   30.4227 C   0  0  0  0  0  0  0  0  0  0  0  0
   22.2074   11.3318   31.2810 O   0  0  0  0  0  0  0  0  0  0  0  0
   21.4078   10.2815   31.6977 C   0  0  0  0  0  0  0  0  0  0  0  0
   21.7477    9.0318   31.2791 N   0  0  0  0  0  0  0  0  0  0  0  0
   20.9736    8.0017   31.6536 C   0  0  0  0  0  0  0  0  0  0  0  0
   19.8665    8.1461   32.4779 C   0  0  0  0  0  0  0  0  0  0  0  0
   19.5200    9.4177   32.8981 C   0  0  0  0  0  0  0  0  0  0  0  0
   18.3829    9.4988   33.6931 N   0  0  0  0  0  0  0  0  0  0  0  0
   20.2909   10.5235   32.5051 C   0  0  0  0  0  0  0  0  0  0  0  0
   19.9670   11.8935   32.8853 C   0  0  0  0  0  0  0  0  0  0  0  0
   19.7174   12.9843   33.1812 N   0  0  0  0  0  0  0  0  0  0  0  0
   21.4331    6.8194   31.1098 N   0  0  0  0  0  0  0  0  0  0  0  0
   20.8527    5.6189   31.0281 C   0  0  0  0  0  0  0  0  0  0  0  0
   19.7272    5.3573   31.4476 O   0  0  0  0  0  0  0  0  0  0  0  0
   21.6390    4.5479   30.2799 C   0  0  0  0  0  0  0  0  0  0  0  0
   23.0290    4.2861   30.8549 C   0  0  0  0  0  0  0  0  0  0  0  0
   24.1071    5.1197   30.5266 C   0  0  0  0  0  0  0  0  0  0  0  0
   23.8494    6.2028   29.7043 O   0  0  0  0  0  0  0  0  0  0  0  0
   24.8536    7.1989   29.5184 C   0  0  0  0  0  0  0  0  0  0  0  0
   25.3718    4.8226   31.0461 C   0  0  0  0  0  0  0  0  0  0  0  0
   25.5645    3.7381   31.9139 C   0  0  0  0  0  0  0  0  0  0  0  0
   24.4775    2.9179   32.2550 C   0  0  0  0  0  0  0  0  0  0  0  0
   23.2164    3.1999   31.7130 C   0  0  0  0  0  0  0  0  0  0  0  0
   24.7079    1.8722   33.1347 O   0  0  0  0  0  0  0  0  0  0  0  0
   23.7954    0.7759   33.1653 C   0  0  0  0  0  0  0  0  0  0  0  0
   26.8105    3.4129   32.4986 N   0  0  0  0  0  0  0  0  0  0  0  0
   28.0304    3.9580   32.3626 C   0  0  0  0  0  0  0  0  0  0  0  0
   28.3090    4.8809   31.6038 O   0  0  0  0  0  0  0  0  0  0  0  0
   29.1268    3.3864   33.2444 C   0  0  0  0  0  0  0  0  0  0  0  0
   24.9324   12.2341   29.5696 H   0  0  0  0  0  0  0  0  0  0  0  0
   23.3951   13.1399   29.7761 H   0  0  0  0  0  0  0  0  0  0  0  0
   24.4166   12.7665   31.2057 H   0  0  0  0  0  0  0  0  0  0  0  0
   22.9596   10.7050   29.4513 H   0  0  0  0  0  0  0  0  0  0  0  0
   23.9811   10.3316   30.8809 H   0  0  0  0  0  0  0  0  0  0  0  0
   19.0018    7.7360   31.9357 H   0  0  0  0  0  0  0  0  0  0  0  0
   20.0523    7.5449   33.3801 H   0  0  0  0  0  0  0  0  0  0  0  0
   18.1753   10.4413   33.9549 H   0  0  0  0  0  0  0  0  0  0  0  0
   22.3494    6.8695   30.7124 H   0  0  0  0  0  0  0  0  0  0  0  0
   21.0667    3.6092   30.3162 H   0  0  0  0  0  0  0  0  0  0  0  0
   21.7517    4.8684   29.2337 H   0  0  0  0  0  0  0  0  0  0  0  0
   24.4769    7.9778   28.8391 H   0  0  0  0  0  0  0  0  0  0  0  0
   25.1064    7.6502   30.4892 H   0  0  0  0  0  0  0  0  0  0  0  0
   25.7522    6.7368   29.0837 H   0  0  0  0  0  0  0  0  0  0  0  0
   26.2151    5.4399   30.7737 H   0  0  0  0  0  0  0  0  0  0  0  0
   22.3768    2.5680   31.9624 H   0  0  0  0  0  0  0  0  0  0  0  0
   24.1278    0.0422   33.9145 H   0  0  0  0  0  0  0  0  0  0  0  0
   22.7922    1.1413   33.4301 H   0  0  0  0  0  0  0  0  0  0  0  0
   23.7622    0.2989   32.1747 H   0  0  0  0  0  0  0  0  0  0  0  0
   29.2319    5.0909   31.6854 H   0  0  0  0  0  0  0  0  0  0  0  0
   30.0720    3.9114   33.0419 H   0  0  0  0  0  0  0  0  0  0  0  0
   28.8532    3.5187   34.3016 H   0  0  0  0  0  0  0  0  0  0  0  0
   29.2493    2.3147   33.0287 H   0  0  0  0  0  0  0  0  0  0  0  0
  1  2  1  0  0  0  0
  2  3  1  0  0  0  0
  3  4  1  0  0  0  0
  4 10  2  0  0  0  0
  4  5  1  0  0  0  0
  5  6  2  0  0  0  0
  6  7  1  0  0  0  0
  6 13  1  0  0  0  0
  7  8  1  0  0  0  0
  8  9  2  0  0  0  0
  8 10  1  0  0  0  0
 10 11  1  0  0  0  0
 11 12  3  0  0  0  0
 13 14  1  0  0  0  0
 14 15  2  0  0  0  0
 14 16  1  0  0  0  0
 16 17  1  0  0  0  0
 17 24  2  0  0  0  0
 17 18  1  0  0  0  0
 18 19  1  0  0  0  0
 18 21  2  0  0  0  0
 19 20  1  0  0  0  0
 21 22  1  0  0  0  0
 22 23  2  0  0  0  0
 22 27  1  0  0  0  0
 23 24  1  0  0  0  0
 23 25  1  0  0  0  0
 25 26  1  0  0  0  0
 27 28  2  0  0  0  0
 28 29  1  0  0  0  0
 28 30  1  0  0  0  0
  1 31  1  0  0  0  0
  1 32  1  0  0  0  0
  1 33  1  0  0  0  0
  2 34  1  0  0  0  0
  2 35  1  0  0  0  0
  7 36  1  0  0  0  0
  7 37  1  0  0  0  0
  9 38  1  0  0  0  0
 13 39  1  0  0  0  0
 16 40  1  0  0  0  0
 16 41  1  0  0  0  0
 20 42  1  0  0  0  0
 20 43  1  0  0  0  0
 20 44  1  0  0  0  0
 21 45  1  0  0  0  0
 24 46  1  0  0  0  0
 26 47  1  0  0  0  0
 26 48  1  0  0  0  0
 26 49  1  0  0  0  0
 29 50  1  0  0  0  0
 30 51  1  0  0  0  0
 30 52  1  0  0  0  0
 30 53  1  0  0  0  0
M  END
> <i_m_stars>
0

> <r_user_dG.exp>
-10.141692

$$$$
18637-1
  -OEChem-05192314073D
 Structure written by MMmdl.
 53 54  0     0  0  0  0  0  0999 V2000
   24.0679   12.3974   30.2299 C   0  0  0  0  0  0  0  0  0  0  0  0
   23.3159   11.0783   30.4227 C   0  0  0  0  0  0  0  0  0  0  0  0
   22.2074   11.3318   31.2810 O   0  0  0  0  0  0  0  0  0  0  0  0
   21.4078   10.2815   31.6977 C   0  0  0  0  0  0  0  0  0  0  0  0
   21.7477    9.0318   31.2791 N   0  0  0  0  0  0  0  0  0  0  0  0
   20.9736    8.0017   31.6536 C   0  0  0  0  0  0  0  0  0  0  0  0
   19.8665    8.1461   32.4779 C   0  0  0  0  0  0  0  0  0  0  0  0
   19.5200    9.4177   32.8981 C   0  0  0  0  0  0  0  0  0  0  0  0
   18.3829    9.4988   33.6931 N   0  0  0  0  0  0  0  0  0  0  0  0
   20.2909   10.5235   32.5051 C   0  0  0  0  0  0  0  0  0  0  0  0
   19.9670   11.8935   32.8853 C   0  0  0  0  0  0  0  0  0  0  0  0
   19.7174   12.9843   33.1812 N   0  0  0  0  0  0  0  0  0  0  0  0
   21.4331    6.8194   31.1098 N   0  0  0  0  0  0  0  0  0  0  0  0
   20.8527    5.6189   31.0281 C   0  0  0  0  0  0  0  0  0  0  0  0
   19.7272    5.3573   31.4476 O   0  0  0  0  0  0  0  0  0  0  0  0
   21.6390    4.5479   30.2799 C   0  0  0  0  0  0  0  0  0  0  0  0
   23.0290    4.2861   30.8549 C   0  0  0  0  0  0  0  0  0  0  0  0
   24.1071    5.1197   30.5266 C   0  0  0  0  0  0  0  0  0  0  0  0
   23.8494    6.2028   29.7043 O   0  0  0  0  0  0  0  0  0  0  0  0
   24.8536    7.1989   29.5184 C   0  0  0  0  0  0  0  0  0  0  0  0
   25.3718    4.8226   31.0461 C   0  0  0  0  0  0  0  0  0  0  0  0
   25.5645    3.7381   31.9139 C   0  0  0  0  0  0  0  0  0  0  0  0
   24.4775    2.9179   32.2550 C   0  0  0  0  0  0  0  0  0  0  0  0
   23.2164    3.1999   31.7130 C   0  0  0  0  0  0  0  0  0  0  0  0
   24.7079    1.8722   33.1347 O   0  0  0  0  0  0  0  0  0  0  0  0
   23.7954    0.7759   33.1653 C   0  0  0  0  0  0  0  0  0  0  0  0
   26.8105    3.4129   32.4986 N   0  0  0  0  0  0  0  0  0  0  0  0
   28.0304    3.9580   32.3626 C   0  0  0  0  0  0  0  0  0  0  0  0
   28.3090    4.8809   31.6038 O   0  0  0  0  0  0  0  0  0  0  0  0
   29.1268    3.3864   33.2444 C   0  0  0  0  0  0  0  0  0  0  0  0
   24.9324   12.2341   29.5696 H   0  0  0  0  0  0  0  0  0  0  0  0
   23.3951   13.1399   29.7761 H   0  0  0  0  0  0  0  0  0  0  0  0
   24.4166   12.7665   31.2057 H   0  0  0  0  0  0  0  0  0  0  0  0
   22.9596   10.7050   29.4513 H   0  0  0  0  0  0  0  0  0  0  0  0
   23.9811   10.3316   30.8809 H   0  0  0  0  0  0  0  0  0  0  0  0
   19.0018    7.7360   31.9357 H   0  0  0  0  0  0  0  0  0  0  0  0
   20.0523    7.5449   33.3801 H   0  0  0  0  0  0  0  0  0  0  0  0
   18.1753   10.4413   33.9549 H   0  0  0  0  0  0  0  0  0  0  0  0
   19.5301    4.4435   31.2783 H   0  0  0  0  0  0  0  0  0  0  0  0
   21.0667    3.6092   30.3162 H   0  0  0  0  0  0  0  0  0  0  0  0
   21.7517    4.8684   29.2337 H   0  0  0  0  0  0  0  0  0  0  0  0
   24.4769    7.9778   28.8391 H   0  0  0  0  0  0  0  0  0  0  0  0
   25.1064    7.6502   30.4892 H   0  0  0  0  0  0  0  0  0  0  0  0
   25.7522    6.7368   29.0837 H   0  0  0  0  0  0  0  0  0  0  0  0
   26.2151    5.4399   30.7737 H   0  0  0  0  0  0  0  0  0  0  0  0
   22.3768    2.5680   31.9624 H   0  0  0  0  0  0  0  0  0  0  0  0
   24.1278    0.0422   33.9145 H   0  0  0  0  0  0  0  0  0  0  0  0
   22.7922    1.1413   33.4301 H   0  0  0  0  0  0  0  0  0  0  0  0
   23.7622    0.2989   32.1747 H   0  0  0  0  0  0  0  0  0  0  0  0
   26.7772    2.6361   33.1274 H   0  0  0  0  0  0  0  0  0  0  0  0
   30.0677    3.9238   33.0552 H   0  0  0  0  0  0  0  0  0  0  0  0
   28.8447    3.5020   34.3013 H   0  0  0  0  0  0  0  0  0  0  0  0
   29.2620    2.3190   33.0156 H   0  0  0  0  0  0  0  0  0  0  0  0
  1  2  1  0  0  0  0
  2  3  1  0  0  0  0
  3  4  1  0  0  0  0
  4 10  2  0  0  0  0
  4  5  1  0  0  0  0
  5  6  2  0  0  0  0
  6  7  1  0  0  0  0
  6 13  1  0  0  0  0
  7  8  1  0  0  0  0
  8  9  2  0  0  0  0
  8 10  1  0  0  0  0
 10 11  1  0  0  0  0
 11 12  3  0  0  0  0
 13 14  2  0  0  0  0
 14 15  1  0  0  0  0
 14 16  1  0  0  0  0
 16 17  1  0  0  0  0
 17 24  2  0  0  0  0
 17 18  1  0  0  0  0
 18 19  1  0  0  0  0
 18 21  2  0  0  0  0
 19 20  1  0  0  0  0
 21 22  1  0  0  0  0
 22 23  2  0  0  0  0
 22 27  1  0  0  0  0
 23 24  1  0  0  0  0
 23 25  1  0  0  0  0
 25 26  1  0  0  0  0
 27 28  1  0  0  0  0
 28 29  2  0  0  0  0
 28 30  1  0  0  0  0
  1 31  1  0  0  0  0
  1 32  1  0  0  0  0
  1 33  1  0  0  0  0
  2 34  1  0  0  0  0
  2 35  1  0  0  0  0
  7 36  1  0  0  0  0
  7 37  1  0  0  0  0
  9 38  1  0  0  0  0
 15 39  1  0  0  0  0
 16 40  1  0  0  0  0
 16 41  1  0  0  0  0
 20 42  1  0  0  0  0
 20 43  1  0  0  0  0
 20 44  1  0  0  0  0
 21 45  1  0  0  0  0
 24 46  1  0  0  0  0
 26 47  1  0  0  0  0
 26 48  1  0  0  0  0
 26 49  1  0  0  0  0
 27 50  1  0  0  0  0
 30 51  1  0  0  0  0
 30 52  1  0  0  0  0
 30 53  1  0  0  0  0
M  END
> <i_m_stars>
0

> <r_user_dG.exp>
-10.141692

$$$$
18637-1
  -OEChem-05192314073D
 Structure written by MMmdl.
 53 54  0     1  0  0  0  0  0999 V2000
   24.0679   12.3974   30.2299 C   0  0  0  0  0  0  0  0  0  0  0  0
   23.3159   11.0783   30.4227 C   0  0  0  0  0  0  0  0  0  0  0  0
   22.2074   11.3318   31.2810 O   0  0  0  0  0  0  0  0  0  0  0  0
   21.4078   10.2815   31.6977 C   0  0  0  0  0  0  0  0  0  0  0  0
   21.7477    9.0318   31.2791 N   0  0  0  0  0  0  0  0  0  0  0  0
   20.9736    8.0017   31.6536 C   0  0  0  0  0  0  0  0  0  0  0  0
   19.8665    8.1461   32.4779 C   0  0  0  0  0  0  0  0  0  0  0  0
   19.5200    9.4177   32.8981 C   0  0  0  0  0  0  0  0  0  0  0  0
   18.3829    9.4988   33.6931 N   0  0  0  0  0  0  0  0  0  0  0  0
   20.2909   10.5235   32.5051 C   0  0  3  0  0  0  0  0  0  0  0  0
   19.9670   11.8935   32.8853 C   0  0  0  0  0  0  0  0  0  0  0  0
   19.7174   12.9843   33.1812 N   0  0  0  0  0  0  0  0  0  0  0  0
   21.4331    6.8194   31.1098 N   0  0  0  0  0  0  0  0  0  0  0  0
   20.8527    5.6189   31.0281 C   0  0  0  0  0  0  0  0  0  0  0  0
   19.7272    5.3573   31.4476 O   0  0  0  0  0  0  0  0  0  0  0  0
   21.6390    4.5479   30.2799 C   0  0  0  0  0  0  0  0  0  0  0  0
   23.0290    4.2861   30.8549 C   0  0  0  0  0  0  0  0  0  0  0  0
   24.1071    5.1197   30.5266 C   0  0  0  0  0  0  0  0  0  0  0  0
   23.8494    6.2028   29.7043 O   0  0  0  0  0  0  0  0  0  0  0  0
   24.8536    7.1989   29.5184 C   0  0  0  0  0  0  0  0  0  0  0  0
   25.3718    4.8226   31.0461 C   0  0  0  0  0  0  0  0  0  0  0  0
   25.5645    3.7381   31.9139 C   0  0  0  0  0  0  0  0  0  0  0  0
   24.4775    2.9179   32.2550 C   0  0  0  0  0  0  0  0  0  0  0  0
   23.2164    3.1999   31.7130 C   0  0  0  0  0  0  0  0  0  0  0  0
   24.7079    1.8722   33.1347 O   0  0  0  0  0  0  0  0  0  0  0  0
   23.7954    0.7759   33.1653 C   0  0  0  0  0  0  0  0  0  0  0  0
   26.8105    3.4129   32.4986 N   0  0  0  0  0  0  0  0  0  0  0  0
   28.0304    3.9580   32.3626 C   0  0  0  0  0  0  0  0  0  0  0  0
   28.3090    4.8809   31.6038 O   0  0  0  0  0  0  0  0  0  0  0  0
   29.1268    3.3864   33.2444 C   0  0  0  0  0  0  0  0  0  0  0  0
   24.9324   12.2341   29.5696 H   0  0  0  0  0  0  0  0  0  0  0  0
   23.3951   13.1399   29.7761 H   0  0  0  0  0  0  0  0  0  0  0  0
   24.4166   12.7665   31.2057 H   0  0  0  0  0  0  0  0  0  0  0  0
   22.9596   10.7050   29.4513 H   0  0  0  0  0  0  0  0  0  0  0  0
   23.9811   10.3316   30.8809 H   0  0  0  0  0  0  0  0  0  0  0  0
   19.2892    7.2862   32.7840 H   0  0  0  0  0  0  0  0  0  0  0  0
   18.2177   10.4529   33.9431 H   0  0  0  0  0  0  0  0  0  0  0  0
   17.5962    9.1461   33.1864 H   0  0  0  0  0  0  0  0  0  0  0  0
   20.9130   10.4158   33.4059 H   0  0  0  0  0  0  0  0  0  0  0  0
   21.0667    3.6092   30.3162 H   0  0  0  0  0  0  0  0  0  0  0  0
   21.7517    4.8684   29.2337 H   0  0  0  0  0  0  0  0  0  0  0  0
   24.4769    7.9778   28.8391 H   0  0  0  0  0  0  0  0  0  0  0  0
   25.1064    7.6502   30.4892 H   0  0  0  0  0  0  0  0  0  0  0  0
   25.7522    6.7368   29.0837 H   0  0  0  0  0  0  0  0  0  0  0  0
   26.2151    5.4399   30.7737 H   0  0  0  0  0  0  0  0  0  0  0  0
   22.3768    2.5680   31.9624 H   0  0  0  0  0  0  0  0  0  0  0  0
   24.1278    0.0422   33.9145 H   0  0  0  0  0  0  0  0  0  0  0  0
   22.7922    1.1413   33.4301 H   0  0  0  0  0  0  0  0  0  0  0  0
   23.7622    0.2989   32.1747 H   0  0  0  0  0  0  0  0  0  0  0  0
   29.2319    5.0909   31.6854 H   0  0  0  0  0  0  0  0  0  0  0  0
   30.0720    3.9114   33.0419 H   0  0  0  0  0  0  0  0  0  0  0  0
   28.8532    3.5187   34.3016 H   0  0  0  0  0  0  0  0  0  0  0  0
   29.2493    2.3147   33.0287 H   0  0  0  0  0  0  0  0  0  0  0  0
  1  2  1  0  0  0  0
  2  3  1  0  0  0  0
  3  4  1  0  0  0  0
  4 10  1  0  0  0  0
  4  5  2  0  0  0  0
  5  6  1  0  0  0  0
  6  7  1  0  0  0  0
  6 13  2  0  0  0  0
  7  8  2  0  0  0  0
  8  9  1  0  0  0  0
  8 10  1  0  0  0  0
 10 11  1  0  0  0  0
 11 12  3  0  0  0  0
 13 14  1  0  0  0  0
 14 15  2  0  0  0  0
 14 16  1  0  0  0  0
 16 17  1  0  0  0  0
 17 24  2  0  0  0  0
 17 18  1  0  0  0  0
 18 19  1  0  0  0  0
 18 21  2  0  0  0  0
 19 20  1  0  0  0  0
 21 22  1  0  0  0  0
 22 23  2  0  0  0  0
 22 27  1  0  0  0  0
 23 24  1  0  0  0  0
 23 25  1  0  0  0  0
 25 26  1  0  0  0  0
 27 28  2  0  0  0  0
 28 29  1  0  0  0  0
 28 30  1  0  0  0  0
  1 31  1  0  0  0  0
  1 32  1  0  0  0  0
  1 33  1  0  0  0  0
  2 34  1  0  0  0  0
  2 35  1  0  0  0  0
  7 36  1  0  0  0  0
  9 37  1  0  0  0  0
  9 38  1  0  0  0  0
 10 39  1  0  0  0  0
 16 40  1  0  0  0  0
 16 41  1  0  0  0  0
 20 42  1  0  0  0  0
 20 43  1  0  0  0  0
 20 44  1  0  0  0  0
 21 45  1  0  0  0  0
 24 46  1  0  0  0  0
 26 47  1  0  0  0  0
 26 48  1  0  0  0  0
 26 49  1  0  0  0  0
 29 50  1  0  0  0  0
 30 51  1  0  0  0  0
 30 52  1  0  0  0  0
 30 53  1  0  0  0  0
M  END
> <i_m_stars>
0

> <r_user_dG.exp>
-10.141692

$$$$
18637-1
  -OEChem-05192314073D
 Structure written by MMmdl.
 53 54  0     0  0  0  0  0  0999 V2000
   24.0679   12.3974   30.2299 C   0  0  0  0  0  0  0  0  0  0  0  0
   23.3159   11.0783   30.4227 C   0  0  0  0  0  0  0  0  0  0  0  0
   22.2074   11.3318   31.2810 O   0  0  0  0  0  0  0  0  0  0  0  0
   21.4078   10.2815   31.6977 C   0  0  0  0  0  0  0  0  0  0  0  0
   21.7477    9.0318   31.2791 N   0  0  0  0  0  0  0  0  0  0  0  0
   20.9736    8.0017   31.6536 C   0  0  0  0  0  0  0  0  0  0  0  0
   19.8665    8.1461   32.4779 C   0  0  0  0  0  0  0  0  0  0  0  0
   19.5200    9.4177   32.8981 C   0  0  0  0  0  0  0  0  0  0  0  0
   18.3829    9.4988   33.6931 N   0  0  0  0  0  0  0  0  0  0  0  0
   20.2909   10.5235   32.5051 C   0  0  0  0  0  0  0  0  0  0  0  0
   19.9670   11.8935   32.8853 C   0  0  0  0  0  0  0  0  0  0  0  0
   19.7174   12.9843   33.1812 N   0  0  0  0  0  0  0  0  0  0  0  0
   21.4331    6.8194   31.1098 N   0  0  0  0  0  0  0  0  0  0  0  0
   20.8527    5.6189   31.0281 C   0  0  0  0  0  0  0  0  0  0  0  0
   19.7272    5.3573   31.4476 O   0  0  0  0  0  0  0  0  0  0  0  0
   21.6390    4.5479   30.2799 C   0  0  0  0  0  0  0  0  0  0  0  0
   23.0290    4.2861   30.8549 C   0  0  0  0  0  0  0  0  0  0  0  0
   24.1071    5.1197   30.5266 C   0  0  0  0  0  0  0  0  0  0  0  0
   23.8494    6.2028   29.7043 O   0  0  0  0  0  0  0  0  0  0  0  0
   24.8536    7.1989   29.5184 C   0  0  0  0  0  0  0  0  0  0  0  0
   25.3718    4.8226   31.0461 C   0  0  0  0  0  0  0  0  0  0  0  0
   25.5645    3.7381   31.9139 C   0  0  0  0  0  0  0  0  0  0  0  0
   24.4775    2.9179   32.2550 C   0  0  0  0  0  0  0  0  0  0  0  0
   23.2164    3.1999   31.7130 C   0  0  0  0  0  0  0  0  0  0  0  0
   24.7079    1.8722   33.1347 O   0  0  0  0  0  0  0  0  0  0  0  0
   23.7954    0.7759   33.1653 C   0  0  0  0  0  0  0  0  0  0  0  0
   26.8105    3.4129   32.4986 N   0  0  0  0  0  0  0  0  0  0  0  0
   28.0304    3.9580   32.3626 C   0  0  0  0  0  0  0  0  0  0  0  0
   28.3090    4.8809   31.6038 O   0  0  0  0  0  0  0  0  0  0  0  0
   29.1268    3.3864   33.2444 C   0  0  0  0  0  0  0  0  0  0  0  0
   24.9324   12.2341   29.5696 H   0  0  0  0  0  0  0  0  0  0  0  0
   23.3951   13.1399   29.7761 H   0  0  0  0  0  0  0  0  0  0  0  0
   24.4166   12.7665   31.2057 H   0  0  0  0  0  0  0  0  0  0  0  0
   22.9596   10.7050   29.4513 H   0  0  0  0  0  0  0  0  0  0  0  0
   23.9811   10.3316   30.8809 H   0  0  0  0  0  0  0  0  0  0  0  0
   19.0018    7.7360   31.9357 H   0  0  0  0  0  0  0  0  0  0  0  0
   20.0523    7.5449   33.3801 H   0  0  0  0  0  0  0  0  0  0  0  0
   18.2177   10.4529   33.9431 H   0  0  0  0  0  0  0  0  0  0  0  0
   17.5962    9.1461   33.1864 H   0  0  0  0  0  0  0  0  0  0  0  0
   21.0667    3.6092   30.3162 H   0  0  0  0  0  0  0  0  0  0  0  0
   21.7517    4.8684   29.2337 H   0  0  0  0  0  0  0  0  0  0  0  0
   24.4769    7.9778   28.8391 H   0  0  0  0  0  0  0  0  0  0  0  0
   25.1064    7.6502   30.4892 H   0  0  0  0  0  0  0  0  0  0  0  0
   25.7522    6.7368   29.0837 H   0  0  0  0  0  0  0  0  0  0  0  0
   26.2151    5.4399   30.7737 H   0  0  0  0  0  0  0  0  0  0  0  0
   22.3768    2.5680   31.9624 H   0  0  0  0  0  0  0  0  0  0  0  0
   24.1278    0.0422   33.9145 H   0  0  0  0  0  0  0  0  0  0  0  0
   22.7922    1.1413   33.4301 H   0  0  0  0  0  0  0  0  0  0  0  0
   23.7622    0.2989   32.1747 H   0  0  0  0  0  0  0  0  0  0  0  0
   29.2319    5.0909   31.6854 H   0  0  0  0  0  0  0  0  0  0  0  0
   30.0720    3.9114   33.0419 H   0  0  0  0  0  0  0  0  0  0  0  0
   28.8532    3.5187   34.3016 H   0  0  0  0  0  0  0  0  0  0  0  0
   29.2493    2.3147   33.0287 H   0  0  0  0  0  0  0  0  0  0  0  0
  1  2  1  0  0  0  0
  2  3  1  0  0  0  0
  3  4  1  0  0  0  0
  4 10  1  0  0  0  0
  4  5  2  0  0  0  0
  5  6  1  0  0  0  0
  6  7  1  0  0  0  0
  6 13  2  0  0  0  0
  7  8  1  0  0  0  0
  8  9  1  0  0  0  0
  8 10  2  0  0  0  0
 10 11  1  0  0  0  0
 11 12  3  0  0  0  0
 13 14  1  0  0  0  0
 14 15  2  0  0  0  0
 14 16  1  0  0  0  0
 16 17  1  0  0  0  0
 17 24  2  0  0  0  0
 17 18  1  0  0  0  0
 18 19  1  0  0  0  0
 18 21  2  0  0  0  0
 19 20  1  0  0  0  0
 21 22  1  0  0  0  0
 22 23  2  0  0  0  0
 22 27  1  0  0  0  0
 23 24  1  0  0  0  0
 23 25  1  0  0  0  0
 25 26  1  0  0  0  0
 27 28  2  0  0  0  0
 28 29  1  0  0  0  0
 28 30  1  0  0  0  0
  1 31  1  0  0  0  0
  1 32  1  0  0  0  0
  1 33  1  0  0  0  0
  2 34  1  0  0  0  0
  2 35  1  0  0  0  0
  7 36  1  0  0  0  0
  7 37  1  0  0  0  0
  9 38  1  0  0  0  0
  9 39  1  0  0  0  0
 16 40  1  0  0  0  0
 16 41  1  0  0  0  0
 20 42  1  0  0  0  0
 20 43  1  0  0  0  0
 20 44  1  0  0  0  0
 21 45  1  0  0  0  0
 24 46  1  0  0  0  0
 26 47  1  0  0  0  0
 26 48  1  0  0  0  0
 26 49  1  0  0  0  0
 29 50  1  0  0  0  0
 30 51  1  0  0  0  0
 30 52  1  0  0  0  0
 30 53  1  0  0  0  0
M  END
> <i_m_stars>
0

> <r_user_dG.exp>
-10.141692

$$$$
18637-1
  -OEChem-05192314073D
 Structure written by MMmdl.
 53 54  0     0  0  0  0  0  0999 V2000
   24.0679   12.3974   30.2299 C   0  0  0  0  0  0  0  0  0  0  0  0
   23.3159   11.0783   30.4227 C   0  0  0  0  0  0  0  0  0  0  0  0
   22.2074   11.3318   31.2810 O   0  0  0  0  0  0  0  0  0  0  0  0
   21.4078   10.2815   31.6977 C   0  0  0  0  0  0  0  0  0  0  0  0
   21.7477    9.0318   31.2791 N   0  0  0  0  0  0  0  0  0  0  0  0
   20.9736    8.0017   31.6536 C   0  0  0  0  0  0  0  0  0  0  0  0
   19.8665    8.1461   32.4779 C   0  0  0  0  0  0  0  0  0  0  0  0
   19.5200    9.4177   32.8981 C   0  0  0  0  0  0  0  0  0  0  0  0
   18.3829    9.4988   33.6931 N   0  0  0  0  0  0  0  0  0  0  0  0
   20.2909   10.5235   32.5051 C   0  0  0  0  0  0  0  0  0  0  0  0
   19.9670   11.8935   32.8853 C   0  0  0  0  0  0  0  0  0  0  0  0
   19.7174   12.9843   33.1812 N   0  0  0  0  0  0  0  0  0  0  0  0
   21.4331    6.8194   31.1098 N   0  0  0  0  0  0  0  0  0  0  0  0
   20.8527    5.6189   31.0281 C   0  0  0  0  0  0  0  0  0  0  0  0
   19.7272    5.3573   31.4476 O   0  0  0  0  0  0  0  0  0  0  0  0
   21.6390    4.5479   30.2799 C   0  0  0  0  0  0  0  0  0  0  0  0
   23.0290    4.2861   30.8549 C   0  0  0  0  0  0  0  0  0  0  0  0
   24.1071    5.1197   30.5266 C   0  0  0  0  0  0  0  0  0  0  0  0
   23.8494    6.2028   29.7043 O   0  0  0  0  0  0  0  0  0  0  0  0
   24.8536    7.1989   29.5184 C   0  0  0  0  0  0  0  0  0  0  0  0
   25.3718    4.8226   31.0461 C   0  0  0  0  0  0  0  0  0  0  0  0
   25.5645    3.7381   31.9139 C   0  0  0  0  0  0  0  0  0  0  0  0
   24.4775    2.9179   32.2550 C   0  0  0  0  0  0  0  0  0  0  0  0
   23.2164    3.1999   31.7130 C   0  0  0  0  0  0  0  0  0  0  0  0
   24.7079    1.8722   33.1347 O   0  0  0  0  0  0  0  0  0  0  0  0
   23.7954    0.7759   33.1653 C   0  0  0  0  0  0  0  0  0  0  0  0
   26.8105    3.4129   32.4986 N   0  0  0  0  0  0  0  0  0  0  0  0
   28.0304    3.9580   32.3626 C   0  0  0  0  0  0  0  0  0  0  0  0
   28.3090    4.8809   31.6038 O   0  0  0  0  0  0  0  0  0  0  0  0
   29.1268    3.3864   33.2444 C   0  0  0  0  0  0  0  0  0  0  0  0
   24.9324   12.2341   29.5696 H   0  0  0  0  0  0  0  0  0  0  0  0
   23.3951   13.1399   29.7761 H   0  0  0  0  0  0  0  0  0  0  0  0
   24.4166   12.7665   31.2057 H   0  0  0  0  0  0  0  0  0  0  0  0
   22.9596   10.7050   29.4513 H   0  0  0  0  0  0  0  0  0  0  0  0
   23.9811   10.3316   30.8809 H   0  0  0  0  0  0  0  0  0  0  0  0
   22.5544    8.8849   30.7066 H   0  0  0  0  0  0  0  0  0  0  0  0
   19.0018    7.7360   31.9357 H   0  0  0  0  0  0  0  0  0  0  0  0
   20.0523    7.5449   33.3801 H   0  0  0  0  0  0  0  0  0  0  0  0
   18.1753   10.4413   33.9549 H   0  0  0  0  0  0  0  0  0  0  0  0
   21.0667    3.6092   30.3162 H   0  0  0  0  0  0  0  0  0  0  0  0
   21.7517    4.8684   29.2337 H   0  0  0  0  0  0  0  0  0  0  0  0
   24.4769    7.9778   28.8391 H   0  0  0  0  0  0  0  0  0  0  0  0
   25.1064    7.6502   30.4892 H   0  0  0  0  0  0  0  0  0  0  0  0
   25.7522    6.7368   29.0837 H   0  0  0  0  0  0  0  0  0  0  0  0
   26.2151    5.4399   30.7737 H   0  0  0  0  0  0  0  0  0  0  0  0
   22.3768    2.5680   31.9624 H   0  0  0  0  0  0  0  0  0  0  0  0
   24.1278    0.0422   33.9145 H   0  0  0  0  0  0  0  0  0  0  0  0
   22.7922    1.1413   33.4301 H   0  0  0  0  0  0  0  0  0  0  0  0
   23.7622    0.2989   32.1747 H   0  0  0  0  0  0  0  0  0  0  0  0
   29.2319    5.0909   31.6854 H   0  0  0  0  0  0  0  0  0  0  0  0
   30.0720    3.9114   33.0419 H   0  0  0  0  0  0  0  0  0  0  0  0
   28.8532    3.5187   34.3016 H   0  0  0  0  0  0  0  0  0  0  0  0
   29.2493    2.3147   33.0287 H   0  0  0  0  0  0  0  0  0  0  0  0
  1  2  1  0  0  0  0
  2  3  1  0  0  0  0
  3  4  1  0  0  0  0
  4 10  2  0  0  0  0
  4  5  1  0  0  0  0
  5  6  1  0  0  0  0
  6  7  1  0  0  0  0
  6 13  2  0  0  0  0
  7  8  1  0  0  0  0
  8  9  2  0  0  0  0
  8 10  1  0  0  0  0
 10 11  1  0  0  0  0
 11 12  3  0  0  0  0
 13 14  1  0  0  0  0
 14 15  2  0  0  0  0
 14 16  1  0  0  0  0
 16 17  1  0  0  0  0
 17 24  2  0  0  0  0
 17 18  1  0  0  0  0
 18 19  1  0  0  0  0
 18 21  2  0  0  0  0
 19 20  1  0  0  0  0
 21 22  1  0  0  0  0
 22 23  2  0  0  0  0
 22 27  1  0  0  0  0
 23 24  1  0  0  0  0
 23 25  1  0  0  0  0
 25 26  1  0  0  0  0
 27 28  2  0  0  0  0
 28 29  1  0  0  0  0
 28 30  1  0  0  0  0
  1 31  1  0  0  0  0
  1 32  1  0  0  0  0
  1 33  1  0  0  0  0
  2 34  1  0  0  0  0
  2 35  1  0  0  0  0
  5 36  1  0  0  0  0
  7 37  1  0  0  0  0
  7 38  1  0  0  0  0
  9 39  1  0  0  0  0
 16 40  1  0  0  0  0
 16 41  1  0  0  0  0
 20 42  1  0  0  0  0
 20 43  1  0  0  0  0
 20 44  1  0  0  0  0
 21 45  1  0  0  0  0
 24 46  1  0  0  0  0
 26 47  1  0  0  0  0
 26 48  1  0  0  0  0
 26 49  1  0  0  0  0
 29 50  1  0  0  0  0
 30 51  1  0  0  0  0
 30 52  1  0  0  0  0
 30 53  1  0  0  0  0
M  END
> <i_m_stars>
0

> <r_user_dG.exp>
-10.141692

$$$$
18637-1
  -OEChem-05192314073D
 Structure written by MMmdl.
 53 54  0     1  0  0  0  0  0999 V2000
   24.0679   12.3974   30.2299 C   0  0  0  0  0  0  0  0  0  0  0  0
   23.3159   11.0783   30.4227 C   0  0  0  0  0  0  0  0  0  0  0  0
   22.2074   11.3318   31.2810 O   0  0  0  0  0  0  0  0  0  0  0  0
   21.4078   10.2815   31.6977 C   0  0  0  0  0  0  0  0  0  0  0  0
   21.7477    9.0318   31.2791 N   0  0  0  0  0  0  0  0  0  0  0  0
   20.9736    8.0017   31.6536 C   0  0  0  0  0  0  0  0  0  0  0  0
   19.8665    8.1461   32.4779 C   0  0  0  0  0  0  0  0  0  0  0  0
   19.5200    9.4177   32.8981 C   0  0  0  0  0  0  0  0  0  0  0  0
   18.3829    9.4988   33.6931 N   0  0  0  0  0  0  0  0  0  0  0  0
   20.2909   10.5235   32.5051 C   0  0  3  0  0  0  0  0  0  0  0  0
   19.9670   11.8935   32.8853 C   0  0  0  0  0  0  0  0  0  0  0  0
   19.7174   12.9843   33.1812 N   0  0  0  0  0  0  0  0  0  0  0  0
   21.4331    6.8194   31.1098 N   0  0  0  0  0  0  0  0  0  0  0  0
   20.8527    5.6189   31.0281 C   0  0  0  0  0  0  0  0  0  0  0  0
   19.7272    5.3573   31.4476 O   0  0  0  0  0  0  0  0  0  0  0  0
   21.6390    4.5479   30.2799 C   0  0  0  0  0  0  0  0  0  0  0  0
   23.0290    4.2861   30.8549 C   0  0  0  0  0  0  0  0  0  0  0  0
   24.1071    5.1197   30.5266 C   0  0  0  0  0  0  0  0  0  0  0  0
   23.8494    6.2028   29.7043 O   0  0  0  0  0  0  0  0  0  0  0  0
   24.8536    7.1989   29.5184 C   0  0  0  0  0  0  0  0  0  0  0  0
   25.3718    4.8226   31.0461 C   0  0  0  0  0  0  0  0  0  0  0  0
   25.5645    3.7381   31.9139 C   0  0  0  0  0  0  0  0  0  0  0  0
   24.4775    2.9179   32.2550 C   0  0  0  0  0  0  0  0  0  0  0  0
   23.2164    3.1999   31.7130 C   0  0  0  0  0  0  0  0  0  0  0  0
   24.7079    1.8722   33.1347 O   0  0  0  0  0  0  0  0  0  0  0  0
   23.7954    0.7759   33.1653 C   0  0  0  0  0  0  0  0  0  0  0  0
   26.8105    3.4129   32.4986 N   0  0  0  0  0  0  0  0  0  0  0  0
   28.0304    3.9580   32.3626 C   0  0  0  0  0  0  0  0  0  0  0  0
   28.3090    4.8809   31.6038 O   0  0  0  0  0  0  0  0  0  0  0  0
   29.1268    3.3864   33.2444 C   0  0  0  0  0  0  0  0  0  0  0  0
   24.9324   12.2341   29.5696 H   0  0  0  0  0  0  0  0  0  0  0  0
   23.3951   13.1399   29.7761 H   0  0  0  0  0  0  0  0  0  0  0  0
   24.4166   12.7665   31.2057 H   0  0  0  0  0  0  0  0  0  0  0  0
   22.9596   10.7050   29.4513 H   0  0  0  0  0  0  0  0  0  0  0  0
   23.9811   10.3316   30.8809 H   0  0  0  0  0  0  0  0  0  0  0  0
   19.2892    7.2862   32.7840 H   0  0  0  0  0  0  0  0  0  0  0  0
   18.1753   10.4413   33.9549 H   0  0  0  0  0  0  0  0  0  0  0  0
   20.9130   10.4158   33.4059 H   0  0  0  0  0  0  0  0  0  0  0  0
   19.5301    4.4435   31.2783 H   0  0  0  0  0  0  0  0  0  0  0  0
   21.0667    3.6092   30.3162 H   0  0  0  0  0  0  0  0  0  0  0  0
   21.7517    4.8684   29.2337 H   0  0  0  0  0  0  0  0  0  0  0  0
   24.4769    7.9778   28.8391 H   0  0  0  0  0  0  0  0  0  0  0  0
   25.1064    7.6502   30.4892 H   0  0  0  0  0  0  0  0  0  0  0  0
   25.7522    6.7368   29.0837 H   0  0  0  0  0  0  0  0  0  0  0  0
   26.2151    5.4399   30.7737 H   0  0  0  0  0  0  0  0  0  0  0  0
   22.3768    2.5680   31.9624 H   0  0  0  0  0  0  0  0  0  0  0  0
   24.1278    0.0422   33.9145 H   0  0  0  0  0  0  0  0  0  0  0  0
   22.7922    1.1413   33.4301 H   0  0  0  0  0  0  0  0  0  0  0  0
   23.7622    0.2989   32.1747 H   0  0  0  0  0  0  0  0  0  0  0  0
   29.2319    5.0909   31.6854 H   0  0  0  0  0  0  0  0  0  0  0  0
   30.0720    3.9114   33.0419 H   0  0  0  0  0  0  0  0  0  0  0  0
   28.8532    3.5187   34.3016 H   0  0  0  0  0  0  0  0  0  0  0  0
   29.2493    2.3147   33.0287 H   0  0  0  0  0  0  0  0  0  0  0  0
  1  2  1  0  0  0  0
  2  3  1  0  0  0  0
  3  4  1  0  0  0  0
  4 10  1  0  0  0  0
  4  5  2  0  0  0  0
  5  6  1  0  0  0  0
  6  7  2  0  0  0  0
  6 13  1  0  0  0  0
  7  8  1  0  0  0  0
  8  9  2  0  0  0  0
  8 10  1  0  0  0  0
 10 11  1  0  0  0  0
 11 12  3  0  0  0  0
 13 14  2  0  0  0  0
 14 15  1  0  0  0  0
 14 16  1  0  0  0  0
 16 17  1  0  0  0  0
 17 24  2  0  0  0  0
 17 18  1  0  0  0  0
 18 19  1  0  0  0  0
 18 21  2  0  0  0  0
 19 20  1  0  0  0  0
 21 22  1  0  0  0  0
 22 23  2  0  0  0  0
 22 27  1  0  0  0  0
 23 24  1  0  0  0  0
 23 25  1  0  0  0  0
 25 26  1  0  0  0  0
 27 28  2  0  0  0  0
 28 29  1  0  0  0  0
 28 30  1  0  0  0  0
  1 31  1  0  0  0  0
  1 32  1  0  0  0  0
  1 33  1  0  0  0  0
  2 34  1  0  0  0  0
  2 35  1  0  0  0  0
  7 36  1  0  0  0  0
  9 37  1  0  0  0  0
 10 38  1  0  0  0  0
 15 39  1  0  0  0  0
 16 40  1  0  0  0  0
 16 41  1  0  0  0  0
 20 42  1  0  0  0  0
 20 43  1  0  0  0  0
 20 44  1  0  0  0  0
 21 45  1  0  0  0  0
 24 46  1  0  0  0  0
 26 47  1  0  0  0  0
 26 48  1  0  0  0  0
 26 49  1  0  0  0  0
 29 50  1  0  0  0  0
 30 51  1  0  0  0  0
 30 52  1  0  0  0  0
 30 53  1  0  0  0  0
M  END
> <i_m_stars>
0

> <r_user_dG.exp>
-10.141692

$$$$
18637-1
  -OEChem-05192314073D
 Structure written by MMmdl.
 53 54  0     0  0  0  0  0  0999 V2000
   24.0679   12.3974   30.2299 C   0  0  0  0  0  0  0  0  0  0  0  0
   23.3159   11.0783   30.4227 C   0  0  0  0  0  0  0  0  0  0  0  0
   22.2074   11.3318   31.2810 O   0  0  0  0  0  0  0  0  0  0  0  0
   21.4078   10.2815   31.6977 C   0  0  0  0  0  0  0  0  0  0  0  0
   21.7477    9.0318   31.2791 N   0  0  0  0  0  0  0  0  0  0  0  0
   20.9736    8.0017   31.6536 C   0  0  0  0  0  0  0  0  0  0  0  0
   19.8665    8.1461   32.4779 C   0  0  0  0  0  0  0  0  0  0  0  0
   19.5200    9.4177   32.8981 C   0  0  0  0  0  0  0  0  0  0  0  0
   18.3829    9.4988   33.6931 N   0  0  0  0  0  0  0  0  0  0  0  0
   20.2909   10.5235   32.5051 C   0  0  0  0  0  0  0  0  0  0  0  0
   19.9670   11.8935   32.8853 C   0  0  0  0  0  0  0  0  0  0  0  0
   19.7174   12.9843   33.1812 N   0  0  0  0  0  0  0  0  0  0  0  0
   21.4331    6.8194   31.1098 N   0  0  0  0  0  0  0  0  0  0  0  0
   20.8527    5.6189   31.0281 C   0  0  0  0  0  0  0  0  0  0  0  0
   19.7272    5.3573   31.4476 O   0  0  0  0  0  0  0  0  0  0  0  0
   21.6390    4.5479   30.2799 C   0  0  0  0  0  0  0  0  0  0  0  0
   23.0290    4.2861   30.8549 C   0  0  0  0  0  0  0  0  0  0  0  0
   24.1071    5.1197   30.5266 C   0  0  0  0  0  0  0  0  0  0  0  0
   23.8494    6.2028   29.7043 O   0  0  0  0  0  0  0  0  0  0  0  0
   24.8536    7.1989   29.5184 C   0  0  0  0  0  0  0  0  0  0  0  0
   25.3718    4.8226   31.0461 C   0  0  0  0  0  0  0  0  0  0  0  0
   25.5645    3.7381   31.9139 C   0  0  0  0  0  0  0  0  0  0  0  0
   24.4775    2.9179   32.2550 C   0  0  0  0  0  0  0  0  0  0  0  0
   23.2164    3.1999   31.7130 C   0  0  0  0  0  0  0  0  0  0  0  0
   24.7079    1.8722   33.1347 O   0  0  0  0  0  0  0  0  0  0  0  0
   23.7954    0.7759   33.1653 C   0  0  0  0  0  0  0  0  0  0  0  0
   26.8105    3.4129   32.4986 N   0  0  0  0  0  0  0  0  0  0  0  0
   28.0304    3.9580   32.3626 C   0  0  0  0  0  0  0  0  0  0  0  0
   28.3090    4.8809   31.6038 O   0  0  0  0  0  0  0  0  0  0  0  0
   29.1268    3.3864   33.2444 C   0  0  0  0  0  0  0  0  0  0  0  0
   24.9324   12.2341   29.5696 H   0  0  0  0  0  0  0  0  0  0  0  0
   23.3951   13.1399   29.7761 H   0  0  0  0  0  0  0  0  0  0  0  0
   24.4166   12.7665   31.2057 H   0  0  0  0  0  0  0  0  0  0  0  0
   22.9596   10.7050   29.4513 H   0  0  0  0  0  0  0  0  0  0  0  0
   23.9811   10.3316   30.8809 H   0  0  0  0  0  0  0  0  0  0  0  0
   19.0018    7.7360   31.9357 H   0  0  0  0  0  0  0  0  0  0  0  0
   20.0523    7.5449   33.3801 H   0  0  0  0  0  0  0  0  0  0  0  0
   18.1753   10.4413   33.9549 H   0  0  0  0  0  0  0  0  0  0  0  0
   19.5301    4.4435   31.2783 H   0  0  0  0  0  0  0  0  0  0  0  0
   21.0667    3.6092   30.3162 H   0  0  0  0  0  0  0  0  0  0  0  0
   21.7517    4.8684   29.2337 H   0  0  0  0  0  0  0  0  0  0  0  0
   24.4769    7.9778   28.8391 H   0  0  0  0  0  0  0  0  0  0  0  0
   25.1064    7.6502   30.4892 H   0  0  0  0  0  0  0  0  0  0  0  0
   25.7522    6.7368   29.0837 H   0  0  0  0  0  0  0  0  0  0  0  0
   26.2151    5.4399   30.7737 H   0  0  0  0  0  0  0  0  0  0  0  0
   22.3768    2.5680   31.9624 H   0  0  0  0  0  0  0  0  0  0  0  0
   24.1278    0.0422   33.9145 H   0  0  0  0  0  0  0  0  0  0  0  0
   22.7922    1.1413   33.4301 H   0  0  0  0  0  0  0  0  0  0  0  0
   23.7622    0.2989   32.1747 H   0  0  0  0  0  0  0  0  0  0  0  0
   29.2319    5.0909   31.6854 H   0  0  0  0  0  0  0  0  0  0  0  0
   30.0720    3.9114   33.0419 H   0  0  0  0  0  0  0  0  0  0  0  0
   28.8532    3.5187   34.3016 H   0  0  0  0  0  0  0  0  0  0  0  0
   29.2493    2.3147   33.0287 H   0  0  0  0  0  0  0  0  0  0  0  0
  1  2  1  0  0  0  0
  2  3  1  0  0  0  0
  3  4  1  0  0  0  0
  4 10  2  0  0  0  0
  4  5  1  0  0  0  0
  5  6  2  0  0  0  0
  6  7  1  0  0  0  0
  6 13  1  0  0  0  0
  7  8  1  0  0  0  0
  8  9  2  0  0  0  0
  8 10  1  0  0  0  0
 10 11  1  0  0  0  0
 11 12  3  0  0  0  0
 13 14  2  0  0  0  0
 14 15  1  0  0  0  0
 14 16  1  0  0  0  0
 16 17  1  0  0  0  0
 17 24  2  0  0  0  0
 17 18  1  0  0  0  0
 18 19  1  0  0  0  0
 18 21  2  0  0  0  0
 19 20  1  0  0  0  0
 21 22  1  0  0  0  0
 22 23  2  0  0  0  0
 22 27  1  0  0  0  0
 23 24  1  0  0  0  0
 23 25  1  0  0  0  0
 25 26  1  0  0  0  0
 27 28  2  0  0  0  0
 28 29  1  0  0  0  0
 28 30  1  0  0  0  0
  1 31  1  0  0  0  0
  1 32  1  0  0  0  0
  1 33  1  0  0  0  0
  2 34  1  0  0  0  0
  2 35  1  0  0  0  0
  7 36  1  0  0  0  0
  7 37  1  0  0  0  0
  9 38  1  0  0  0  0
 15 39  1  0  0  0  0
 16 40  1  0  0  0  0
 16 41  1  0  0  0  0
 20 42  1  0  0  0  0
 20 43  1  0  0  0  0
 20 44  1  0  0  0  0
 21 45  1  0  0  0  0
 24 46  1  0  0  0  0
 26 47  1  0  0  0  0
 26 48  1  0  0  0  0
 26 49  1  0  0  0  0
 29 50  1  0  0  0  0
 30 51  1  0  0  0  0
 30 52  1  0  0  0  0
 30 53  1  0  0  0  0
M  END
> <i_m_stars>
0

> <r_user_dG.exp>
-10.141692

$$$$
18637-1
  -OEChem-05192314073D
 Structure written by MMmdl.
 53 54  0     1  0  0  0  0  0999 V2000
   24.0679   12.3974   30.2299 C   0  0  0  0  0  0  0  0  0  0  0  0
   23.3159   11.0783   30.4227 C   0  0  0  0  0  0  0  0  0  0  0  0
   22.2074   11.3318   31.2810 O   0  0  0  0  0  0  0  0  0  0  0  0
   21.4078   10.2815   31.6977 C   0  0  0  0  0  0  0  0  0  0  0  0
   21.7477    9.0318   31.2791 N   0  0  0  0  0  0  0  0  0  0  0  0
   20.9736    8.0017   31.6536 C   0  0  0  0  0  0  0  0  0  0  0  0
   19.8665    8.1461   32.4779 C   0  0  0  0  0  0  0  0  0  0  0  0
   19.5200    9.4177   32.8981 C   0  0  0  0  0  0  0  0  0  0  0  0
   18.3829    9.4988   33.6931 N   0  0  0  0  0  0  0  0  0  0  0  0
   20.2909   10.5235   32.5051 C   0  0  0  0  0  0  0  0  0  0  0  0
   19.9670   11.8935   32.8853 C   0  0  0  0  0  0  0  0  0  0  0  0
   19.7174   12.9843   33.1812 N   0  0  0  0  0  0  0  0  0  0  0  0
   21.4331    6.8194   31.1098 N   0  0  0  0  0  0  0  0  0  0  0  0
   20.8527    5.6189   31.0281 C   0  0  0  0  0  0  0  0  0  0  0  0
   19.7272    5.3573   31.4476 O   0  0  0  0  0  0  0  0  0  0  0  0
   21.6390    4.5479   30.2799 C   0  0  0  0  0  0  0  0  0  0  0  0
   23.0290    4.2861   30.8549 C   0  0  3  0  0  0  0  0  0  0  0  0
   24.1071    5.1197   30.5266 C   0  0  0  0  0  0  0  0  0  0  0  0
   23.8494    6.2028   29.7043 O   0  0  0  0  0  0  0  0  0  0  0  0
   24.8536    7.1989   29.5184 C   0  0  0  0  0  0  0  0  0  0  0  0
   25.3718    4.8226   31.0461 C   0  0  0  0  0  0  0  0  0  0  0  0
   25.5645    3.7381   31.9139 C   0  0  0  0  0  0  0  0  0  0  0  0
   24.4775    2.9179   32.2550 C   0  0  0  0  0  0  0  0  0  0  0  0
   23.2164    3.1999   31.7130 C   0  0  0  0  0  0  0  0  0  0  0  0
   24.7079    1.8722   33.1347 O   0  0  0  0  0  0  0  0  0  0  0  0
   23.7954    0.7759   33.1653 C   0  0  0  0  0  0  0  0  0  0  0  0
   26.8105    3.4129   32.4986 N   0  0  0  0  0  0  0  0  0  0  0  0
   28.0304    3.9580   32.3626 C   0  0  0  0  0  0  0  0  0  0  0  0
   28.3090    4.8809   31.6038 O   0  0  0  0  0  0  0  0  0  0  0  0
   29.1268    3.3864   33.2444 C   0  0  0  0  0  0  0  0  0  0  0  0
   24.9324   12.2341   29.5696 H   0  0  0  0  0  0  0  0  0  0  0  0
   23.3951   13.1399   29.7761 H   0  0  0  0  0  0  0  0  0  0  0  0
   24.4166   12.7665   31.2057 H   0  0  0  0  0  0  0  0  0  0  0  0
   22.9596   10.7050   29.4513 H   0  0  0  0  0  0  0  0  0  0  0  0
   23.9811   10.3316   30.8809 H   0  0  0  0  0  0  0  0  0  0  0  0
   19.2892    7.2862   32.7840 H   0  0  0  0  0  0  0  0  0  0  0  0
   18.2177   10.4529   33.9431 H   0  0  0  0  0  0  0  0  0  0  0  0
   17.5962    9.1461   33.1864 H   0  0  0  0  0  0  0  0  0  0  0  0
   22.3494    6.8695   30.7124 H   0  0  0  0  0  0  0  0  0  0  0  0
   21.0667    3.6092   30.3162 H   0  0  0  0  0  0  0  0  0  0  0  0
   21.7517    4.8684   29.2337 H   0  0  0  0  0  0  0  0  0  0  0  0
   22.7942    4.9278   31.7169 H   0  0  0  0  0  0  0  0  0  0  0  0
   24.4769    7.9778   28.8391 H   0  0  0  0  0  0  0  0  0  0  0  0
   25.1064    7.6502   30.4892 H   0  0  0  0  0  0  0  0  0  0  0  0
   25.7522    6.7368   29.0837 H   0  0  0  0  0  0  0  0  0  0  0  0
   26.2151    5.4399   30.7737 H   0  0  0  0  0  0  0  0  0  0  0  0
   22.3768    2.5680   31.9624 H   0  0  0  0  0  0  0  0  0  0  0  0
   24.1278    0.0422   33.9145 H   0  0  0  0  0  0  0  0  0  0  0  0
   22.7922    1.1413   33.4301 H   0  0  0  0  0  0  0  0  0  0  0  0
   23.7622    0.2989   32.1747 H   0  0  0  0  0  0  0  0  0  0  0  0
   30.0677    3.9238   33.0552 H   0  0  0  0  0  0  0  0  0  0  0  0
   28.8447    3.5020   34.3013 H   0  0  0  0  0  0  0  0  0  0  0  0
   29.2620    2.3190   33.0156 H   0  0  0  0  0  0  0  0  0  0  0  0
  1  2  1  0  0  0  0
  2  3  1  0  0  0  0
  3  4  1  0  0  0  0
  4 10  2  0  0  0  0
  4  5  1  0  0  0  0
  5  6  2  0  0  0  0
  6  7  1  0  0  0  0
  6 13  1  0  0  0  0
  7  8  2  0  0  0  0
  8  9  1  0  0  0  0
  8 10  1  0  0  0  0
 10 11  1  0  0  0  0
 11 12  3  0  0  0  0
 13 14  1  0  0  0  0
 14 15  2  0  0  0  0
 14 16  1  0  0  0  0
 16 17  1  0  0  0  0
 17 24  1  0  0  0  0
 17 18  1  0  0  0  0
 18 19  1  0  0  0  0
 18 21  2  0  0  0  0
 19 20  1  0  0  0  0
 21 22  1  0  0  0  0
 22 23  1  0  0  0  0
 22 27  2  0  0  0  0
 23 24  2  0  0  0  0
 23 25  1  0  0  0  0
 25 26  1  0  0  0  0
 27 28  1  0  0  0  0
 28 29  2  0  0  0  0
 28 30  1  0  0  0  0
  1 31  1  0  0  0  0
  1 32  1  0  0  0  0
  1 33  1  0  0  0  0
  2 34  1  0  0  0  0
  2 35  1  0  0  0  0
  7 36  1  0  0  0  0
  9 37  1  0  0  0  0
  9 38  1  0  0  0  0
 13 39  1  0  0  0  0
 16 40  1  0  0  0  0
 16 41  1  0  0  0  0
 17 42  1  0  0  0  0
 20 43  1  0  0  0  0
 20 44  1  0  0  0  0
 20 45  1  0  0  0  0
 21 46  1  0  0  0  0
 24 47  1  0  0  0  0
 26 48  1  0  0  0  0
 26 49  1  0  0  0  0
 26 50  1  0  0  0  0
 30 51  1  0  0  0  0
 30 52  1  0  0  0  0
 30 53  1  0  0  0  0
M  END
> <i_m_stars>
0

> <r_user_dG.exp>
-10.141692

$$$$
18637-1
  -OEChem-05192314073D
 Structure written by MMmdl.
 53 54  0     1  0  0  0  0  0999 V2000
   24.0679   12.3974   30.2299 C   0  0  0  0  0  0  0  0  0  0  0  0
   23.3159   11.0783   30.4227 C   0  0  0  0  0  0  0  0  0  0  0  0
   22.2074   11.3318   31.2810 O   0  0  0  0  0  0  0  0  0  0  0  0
   21.4078   10.2815   31.6977 C   0  0  0  0  0  0  0  0  0  0  0  0
   21.7477    9.0318   31.2791 N   0  0  0  0  0  0  0  0  0  0  0  0
   20.9736    8.0017   31.6536 C   0  0  0  0  0  0  0  0  0  0  0  0
   19.8665    8.1461   32.4779 C   0  0  0  0  0  0  0  0  0  0  0  0
   19.5200    9.4177   32.8981 C   0  0  0  0  0  0  0  0  0  0  0  0
   18.3829    9.4988   33.6931 N   0  0  0  0  0  0  0  0  0  0  0  0
   20.2909   10.5235   32.5051 C   0  0  0  0  0  0  0  0  0  0  0  0
   19.9670   11.8935   32.8853 C   0  0  0  0  0  0  0  0  0  0  0  0
   19.7174   12.9843   33.1812 N   0  0  0  0  0  0  0  0  0  0  0  0
   21.4331    6.8194   31.1098 N   0  0  0  0  0  0  0  0  0  0  0  0
   20.8527    5.6189   31.0281 C   0  0  0  0  0  0  0  0  0  0  0  0
   19.7272    5.3573   31.4476 O   0  0  0  0  0  0  0  0  0  0  0  0
   21.6390    4.5479   30.2799 C   0  0  0  0  0  0  0  0  0  0  0  0
   23.0290    4.2861   30.8549 C   0  0  0  0  0  0  0  0  0  0  0  0
   24.1071    5.1197   30.5266 C   0  0  0  0  0  0  0  0  0  0  0  0
   23.8494    6.2028   29.7043 O   0  0  0  0  0  0  0  0  0  0  0  0
   24.8536    7.1989   29.5184 C   0  0  0  0  0  0  0  0  0  0  0  0
   25.3718    4.8226   31.0461 C   0  0  0  0  0  0  0  0  0  0  0  0
   25.5645    3.7381   31.9139 C   0  0  0  0  0  0  0  0  0  0  0  0
   24.4775    2.9179   32.2550 C   0  0  3  0  0  0  0  0  0  0  0  0
   23.2164    3.1999   31.7130 C   0  0  0  0  0  0  0  0  0  0  0  0
   24.7079    1.8722   33.1347 O   0  0  0  0  0  0  0  0  0  0  0  0
   23.7954    0.7759   33.1653 C   0  0  0  0  0  0  0  0  0  0  0  0
   26.8105    3.4129   32.4986 N   0  0  0  0  0  0  0  0  0  0  0  0
   28.0304    3.9580   32.3626 C   0  0  0  0  0  0  0  0  0  0  0  0
   28.3090    4.8809   31.6038 O   0  0  0  0  0  0  0  0  0  0  0  0
   29.1268    3.3864   33.2444 C   0  0  0  0  0  0  0  0  0  0  0  0
   24.9324   12.2341   29.5696 H   0  0  0  0  0  0  0  0  0  0  0  0
   23.3951   13.1399   29.7761 H   0  0  0  0  0  0  0  0  0  0  0  0
   24.4166   12.7665   31.2057 H   0  0  0  0  0  0  0  0  0  0  0  0
   22.9596   10.7050   29.4513 H   0  0  0  0  0  0  0  0  0  0  0  0
   23.9811   10.3316   30.8809 H   0  0  0  0  0  0  0  0  0  0  0  0
   19.2892    7.2862   32.7840 H   0  0  0  0  0  0  0  0  0  0  0  0
   18.2177   10.4529   33.9431 H   0  0  0  0  0  0  0  0  0  0  0  0
   17.5962    9.1461   33.1864 H   0  0  0  0  0  0  0  0  0  0  0  0
   22.3494    6.8695   30.7124 H   0  0  0  0  0  0  0  0  0  0  0  0
   21.0667    3.6092   30.3162 H   0  0  0  0  0  0  0  0  0  0  0  0
   21.7517    4.8684   29.2337 H   0  0  0  0  0  0  0  0  0  0  0  0
   24.4769    7.9778   28.8391 H   0  0  0  0  0  0  0  0  0  0  0  0
   25.1064    7.6502   30.4892 H   0  0  0  0  0  0  0  0  0  0  0  0
   25.7522    6.7368   29.0837 H   0  0  0  0  0  0  0  0  0  0  0  0
   26.2151    5.4399   30.7737 H   0  0  0  0  0  0  0  0  0  0  0  0
   24.7015    2.2581   31.4038 H   0  0  0  0  0  0  0  0  0  0  0  0
   22.3768    2.5680   31.9624 H   0  0  0  0  0  0  0  0  0  0  0  0
   24.1278    0.0422   33.9145 H   0  0  0  0  0  0  0  0  0  0  0  0
   22.7922    1.1413   33.4301 H   0  0  0  0  0  0  0  0  0  0  0  0
   23.7622    0.2989   32.1747 H   0  0  0  0  0  0  0  0  0  0  0  0
   30.0677    3.9238   33.0552 H   0  0  0  0  0  0  0  0  0  0  0  0
   28.8447    3.5020   34.3013 H   0  0  0  0  0  0  0  0  0  0  0  0
   29.2620    2.3190   33.0156 H   0  0  0  0  0  0  0  0  0  0  0  0
  1  2  1  0  0  0  0
  2  3  1  0  0  0  0
  3  4  1  0  0  0  0
  4 10  2  0  0  0  0
  4  5  1  0  0  0  0
  5  6  2  0  0  0  0
  6  7  1  0  0  0  0
  6 13  1  0  0  0  0
  7  8  2  0  0  0  0
  8  9  1  0  0  0  0
  8 10  1  0  0  0  0
 10 11  1  0  0  0  0
 11 12  3  0  0  0  0
 13 14  1  0  0  0  0
 14 15  2  0  0  0  0
 14 16  1  0  0  0  0
 16 17  1  0  0  0  0
 17 24  2  0  0  0  0
 17 18  1  0  0  0  0
 18 19  1  0  0  0  0
 18 21  2  0  0  0  0
 19 20  1  0  0  0  0
 21 22  1  0  0  0  0
 22 23  1  0  0  0  0
 22 27  2  0  0  0  0
 23 24  1  0  0  0  0
 23 25  1  0  0  0  0
 25 26  1  0  0  0  0
 27 28  1  0  0  0  0
 28 29  2  0  0  0  0
 28 30  1  0  0  0  0
  1 31  1  0  0  0  0
  1 32  1  0  0  0  0
  1 33  1  0  0  0  0
  2 34  1  0  0  0  0
  2 35  1  0  0  0  0
  7 36  1  0  0  0  0
  9 37  1  0  0  0  0
  9 38  1  0  0  0  0
 13 39  1  0  0  0  0
 16 40  1  0  0  0  0
 16 41  1  0  0  0  0
 20 42  1  0  0  0  0
 20 43  1  0  0  0  0
 20 44  1  0  0  0  0
 21 45  1  0  0  0  0
 23 46  1  0  0  0  0
 24 47  1  0  0  0  0
 26 48  1  0  0  0  0
 26 49  1  0  0  0  0
 26 50  1  0  0  0  0
 30 51  1  0  0  0  0
 30 52  1  0  0  0  0
 30 53  1  0  0  0  0
M  END
> <i_m_stars>
0

> <r_user_dG.exp>
-10.141692

$$$$
18637-1
  -OEChem-05192314073D
 Structure written by MMmdl.
 53 54  0     0  0  0  0  0  0999 V2000
   24.0679   12.3974   30.2299 C   0  0  0  0  0  0  0  0  0  0  0  0
   23.3159   11.0783   30.4227 C   0  0  0  0  0  0  0  0  0  0  0  0
   22.2074   11.3318   31.2810 O   0  0  0  0  0  0  0  0  0  0  0  0
   21.4078   10.2815   31.6977 C   0  0  0  0  0  0  0  0  0  0  0  0
   21.7477    9.0318   31.2791 N   0  0  0  0  0  0  0  0  0  0  0  0
   20.9736    8.0017   31.6536 C   0  0  0  0  0  0  0  0  0  0  0  0
   19.8665    8.1461   32.4779 C   0  0  0  0  0  0  0  0  0  0  0  0
   19.5200    9.4177   32.8981 C   0  0  0  0  0  0  0  0  0  0  0  0
   18.3829    9.4988   33.6931 N   0  0  0  0  0  0  0  0  0  0  0  0
   20.2909   10.5235   32.5051 C   0  0  0  0  0  0  0  0  0  0  0  0
   19.9670   11.8935   32.8853 C   0  0  0  0  0  0  0  0  0  0  0  0
   19.7174   12.9843   33.1812 N   0  0  0  0  0  0  0  0  0  0  0  0
   21.4331    6.8194   31.1098 N   0  0  0  0  0  0  0  0  0  0  0  0
   20.8527    5.6189   31.0281 C   0  0  0  0  0  0  0  0  0  0  0  0
   19.7272    5.3573   31.4476 O   0  0  0  0  0  0  0  0  0  0  0  0
   21.6390    4.5479   30.2799 C   0  0  0  0  0  0  0  0  0  0  0  0
   23.0290    4.2861   30.8549 C   0  0  0  0  0  0  0  0  0  0  0  0
   24.1071    5.1197   30.5266 C   0  0  0  0  0  0  0  0  0  0  0  0
   23.8494    6.2028   29.7043 O   0  0  0  0  0  0  0  0  0  0  0  0
   24.8536    7.1989   29.5184 C   0  0  0  0  0  0  0  0  0  0  0  0
   25.3718    4.8226   31.0461 C   0  0  0  0  0  0  0  0  0  0  0  0
   25.5645    3.7381   31.9139 C   0  0  0  0  0  0  0  0  0  0  0  0
   24.4775    2.9179   32.2550 C   0  0  0  0  0  0  0  0  0  0  0  0
   23.2164    3.1999   31.7130 C   0  0  0  0  0  0  0  0  0  0  0  0
   24.7079    1.8722   33.1347 O   0  0  0  0  0  0  0  0  0  0  0  0
   23.7954    0.7759   33.1653 C   0  0  0  0  0  0  0  0  0  0  0  0
   26.8105    3.4129   32.4986 N   0  0  0  0  0  0  0  0  0  0  0  0
   28.0304    3.9580   32.3626 C   0  0  0  0  0  0  0  0  0  0  0  0
   28.3090    4.8809   31.6038 O   0  0  0  0  0  0  0  0  0  0  0  0
   29.1268    3.3864   33.2444 C   0  0  0  0  0  0  0  0  0  0  0  0
   24.9324   12.2341   29.5696 H   0  0  0  0  0  0  0  0  0  0  0  0
   23.3951   13.1399   29.7761 H   0  0  0  0  0  0  0  0  0  0  0  0
   24.4166   12.7665   31.2057 H   0  0  0  0  0  0  0  0  0  0  0  0
   22.9596   10.7050   29.4513 H   0  0  0  0  0  0  0  0  0  0  0  0
   23.9811   10.3316   30.8809 H   0  0  0  0  0  0  0  0  0  0  0  0
   19.2892    7.2862   32.7840 H   0  0  0  0  0  0  0  0  0  0  0  0
   18.2177   10.4529   33.9431 H   0  0  0  0  0  0  0  0  0  0  0  0
   17.5962    9.1461   33.1864 H   0  0  0  0  0  0  0  0  0  0  0  0
   22.3494    6.8695   30.7124 H   0  0  0  0  0  0  0  0  0  0  0  0
   21.0667    3.6092   30.3162 H   0  0  0  0  0  0  0  0  0  0  0  0
   21.7517    4.8684   29.2337 H   0  0  0  0  0  0  0  0  0  0  0  0
   24.4769    7.9778   28.8391 H   0  0  0  0  0  0  0  0  0  0  0  0
   25.1064    7.6502   30.4892 H   0  0  0  0  0  0  0  0  0  0  0  0
   25.7522    6.7368   29.0837 H   0  0  0  0  0  0  0  0  0  0  0  0
   26.0313    4.6517   30.1824 H   0  0  0  0  0  0  0  0  0  0  0  0
   25.7041    5.7195   31.5894 H   0  0  0  0  0  0  0  0  0  0  0  0
   22.3768    2.5680   31.9624 H   0  0  0  0  0  0  0  0  0  0  0  0
   24.1278    0.0422   33.9145 H   0  0  0  0  0  0  0  0  0  0  0  0
   22.7922    1.1413   33.4301 H   0  0  0  0  0  0  0  0  0  0  0  0
   23.7622    0.2989   32.1747 H   0  0  0  0  0  0  0  0  0  0  0  0
   30.0677    3.9238   33.0552 H   0  0  0  0  0  0  0  0  0  0  0  0
   28.8447    3.5020   34.3013 H   0  0  0  0  0  0  0  0  0  0  0  0
   29.2620    2.3190   33.0156 H   0  0  0  0  0  0  0  0  0  0  0  0
  1  2  1  0  0  0  0
  2  3  1  0  0  0  0
  3  4  1  0  0  0  0
  4 10  2  0  0  0  0
  4  5  1  0  0  0  0
  5  6  2  0  0  0  0
  6  7  1  0  0  0  0
  6 13  1  0  0  0  0
  7  8  2  0  0  0  0
  8  9  1  0  0  0  0
  8 10  1  0  0  0  0
 10 11  1  0  0  0  0
 11 12  3  0  0  0  0
 13 14  1  0  0  0  0
 14 15  2  0  0  0  0
 14 16  1  0  0  0  0
 16 17  1  0  0  0  0
 17 24  1  0  0  0  0
 17 18  2  0  0  0  0
 18 19  1  0  0  0  0
 18 21  1  0  0  0  0
 19 20  1  0  0  0  0
 21 22  1  0  0  0  0
 22 23  1  0  0  0  0
 22 27  2  0  0  0  0
 23 24  2  0  0  0  0
 23 25  1  0  0  0  0
 25 26  1  0  0  0  0
 27 28  1  0  0  0  0
 28 29  2  0  0  0  0
 28 30  1  0  0  0  0
  1 31  1  0  0  0  0
  1 32  1  0  0  0  0
  1 33  1  0  0  0  0
  2 34  1  0  0  0  0
  2 35  1  0  0  0  0
  7 36  1  0  0  0  0
  9 37  1  0  0  0  0
  9 38  1  0  0  0  0
 13 39  1  0  0  0  0
 16 40  1  0  0  0  0
 16 41  1  0  0  0  0
 20 42  1  0  0  0  0
 20 43  1  0  0  0  0
 20 44  1  0  0  0  0
 21 45  1  0  0  0  0
 21 46  1  0  0  0  0
 24 47  1  0  0  0  0
 26 48  1  0  0  0  0
 26 49  1  0  0  0  0
 26 50  1  0  0  0  0
 30 51  1  0  0  0  0
 30 52  1  0  0  0  0
 30 53  1  0  0  0  0
M  END
> <i_m_stars>
0

> <r_user_dG.exp>
-10.141692

$$$$
18637-1
  -OEChem-05192314073D
 Structure written by MMmdl.
 53 54  0     1  0  0  0  0  0999 V2000
   24.0679   12.3974   30.2299 C   0  0  0  0  0  0  0  0  0  0  0  0
   23.3159   11.0783   30.4227 C   0  0  0  0  0  0  0  0  0  0  0  0
   22.2074   11.3318   31.2810 O   0  0  0  0  0  0  0  0  0  0  0  0
   21.4078   10.2815   31.6977 C   0  0  0  0  0  0  0  0  0  0  0  0
   21.7477    9.0318   31.2791 N   0  0  0  0  0  0  0  0  0  0  0  0
   20.9736    8.0017   31.6536 C   0  0  0  0  0  0  0  0  0  0  0  0
   19.8665    8.1461   32.4779 C   0  0  0  0  0  0  0  0  0  0  0  0
   19.5200    9.4177   32.8981 C   0  0  0  0  0  0  0  0  0  0  0  0
   18.3829    9.4988   33.6931 N   0  0  0  0  0  0  0  0  0  0  0  0
   20.2909   10.5235   32.5051 C   0  0  0  0  0  0  0  0  0  0  0  0
   19.9670   11.8935   32.8853 C   0  0  0  0  0  0  0  0  0  0  0  0
   19.7174   12.9843   33.1812 N   0  0  0  0  0  0  0  0  0  0  0  0
   21.4331    6.8194   31.1098 N   0  0  0  0  0  0  0  0  0  0  0  0
   20.8527    5.6189   31.0281 C   0  0  0  0  0  0  0  0  0  0  0  0
   19.7272    5.3573   31.4476 O   0  0  0  0  0  0  0  0  0  0  0  0
   21.6390    4.5479   30.2799 C   0  0  0  0  0  0  0  0  0  0  0  0
   23.0290    4.2861   30.8549 C   0  0  3  0  0  0  0  0  0  0  0  0
   24.1071    5.1197   30.5266 C   0  0  0  0  0  0  0  0  0  0  0  0
   23.8494    6.2028   29.7043 O   0  0  0  0  0  0  0  0  0  0  0  0
   24.8536    7.1989   29.5184 C   0  0  0  0  0  0  0  0  0  0  0  0
   25.3718    4.8226   31.0461 C   0  0  0  0  0  0  0  0  0  0  0  0
   25.5645    3.7381   31.9139 C   0  0  0  0  0  0  0  0  0  0  0  0
   24.4775    2.9179   32.2550 C   0  0  0  0  0  0  0  0  0  0  0  0
   23.2164    3.1999   31.7130 C   0  0  0  0  0  0  0  0  0  0  0  0
   24.7079    1.8722   33.1347 O   0  0  0  0  0  0  0  0  0  0  0  0
   23.7954    0.7759   33.1653 C   0  0  0  0  0  0  0  0  0  0  0  0
   26.8105    3.4129   32.4986 N   0  0  0  0  0  0  0  0  0  0  0  0
   28.0304    3.9580   32.3626 C   0  0  0  0  0  0  0  0  0  0  0  0
   28.3090    4.8809   31.6038 O   0  0  0  0  0  0  0  0  0  0  0  0
   29.1268    3.3864   33.2444 C   0  0  0  0  0  0  0  0  0  0  0  0
   24.9324   12.2341   29.5696 H   0  0  0  0  0  0  0  0  0  0  0  0
   23.3951   13.1399   29.7761 H   0  0  0  0  0  0  0  0  0  0  0  0
   24.4166   12.7665   31.2057 H   0  0  0  0  0  0  0  0  0  0  0  0
   22.9596   10.7050   29.4513 H   0  0  0  0  0  0  0  0  0  0  0  0
   23.9811   10.3316   30.8809 H   0  0  0  0  0  0  0  0  0  0  0  0
   19.2892    7.2862   32.7840 H   0  0  0  0  0  0  0  0  0  0  0  0
   18.2177   10.4529   33.9431 H   0  0  0  0  0  0  0  0  0  0  0  0
   17.5962    9.1461   33.1864 H   0  0  0  0  0  0  0  0  0  0  0  0
   19.5301    4.4435   31.2783 H   0  0  0  0  0  0  0  0  0  0  0  0
   21.0667    3.6092   30.3162 H   0  0  0  0  0  0  0  0  0  0  0  0
   21.7517    4.8684   29.2337 H   0  0  0  0  0  0  0  0  0  0  0  0
   22.7942    4.9278   31.7169 H   0  0  0  0  0  0  0  0  0  0  0  0
   24.4769    7.9778   28.8391 H   0  0  0  0  0  0  0  0  0  0  0  0
   25.1064    7.6502   30.4892 H   0  0  0  0  0  0  0  0  0  0  0  0
   25.7522    6.7368   29.0837 H   0  0  0  0  0  0  0  0  0  0  0  0
   26.2151    5.4399   30.7737 H   0  0  0  0  0  0  0  0  0  0  0  0
   22.3768    2.5680   31.9624 H   0  0  0  0  0  0  0  0  0  0  0  0
   24.1278    0.0422   33.9145 H   0  0  0  0  0  0  0  0  0  0  0  0
   22.7922    1.1413   33.4301 H   0  0  0  0  0  0  0  0  0  0  0  0
   23.7622    0.2989   32.1747 H   0  0  0  0  0  0  0  0  0  0  0  0
   30.0677    3.9238   33.0552 H   0  0  0  0  0  0  0  0  0  0  0  0
   28.8447    3.5020   34.3013 H   0  0  0  0  0  0  0  0  0  0  0  0
   29.2620    2.3190   33.0156 H   0  0  0  0  0  0  0  0  0  0  0  0
  1  2  1  0  0  0  0
  2  3  1  0  0  0  0
  3  4  1  0  0  0  0
  4 10  2  0  0  0  0
  4  5  1  0  0  0  0
  5  6  2  0  0  0  0
  6  7  1  0  0  0  0
  6 13  1  0  0  0  0
  7  8  2  0  0  0  0
  8  9  1  0  0  0  0
  8 10  1  0  0  0  0
 10 11  1  0  0  0  0
 11 12  3  0  0  0  0
 13 14  2  0  0  0  0
 14 15  1  0  0  0  0
 14 16  1  0  0  0  0
 16 17  1  0  0  0  0
 17 24  1  0  0  0  0
 17 18  1  0  0  0  0
 18 19  1  0  0  0  0
 18 21  2  0  0  0  0
 19 20  1  0  0  0  0
 21 22  1  0  0  0  0
 22 23  1  0  0  0  0
 22 27  2  0  0  0  0
 23 24  2  0  0  0  0
 23 25  1  0  0  0  0
 25 26  1  0  0  0  0
 27 28  1  0  0  0  0
 28 29  2  0  0  0  0
 28 30  1  0  0  0  0
  1 31  1  0  0  0  0
  1 32  1  0  0  0  0
  1 33  1  0  0  0  0
  2 34  1  0  0  0  0
  2 35  1  0  0  0  0
  7 36  1  0  0  0  0
  9 37  1  0  0  0  0
  9 38  1  0  0  0  0
 15 39  1  0  0  0  0
 16 40  1  0  0  0  0
 16 41  1  0  0  0  0
 17 42  1  0  0  0  0
 20 43  1  0  0  0  0
 20 44  1  0  0  0  0
 20 45  1  0  0  0  0
 21 46  1  0  0  0  0
 24 47  1  0  0  0  0
 26 48  1  0  0  0  0
 26 49  1  0  0  0  0
 26 50  1  0  0  0  0
 30 51  1  0  0  0  0
 30 52  1  0  0  0  0
 30 53  1  0  0  0  0
M  END
> <i_m_stars>
0

> <r_user_dG.exp>
-10.141692

$$$$
18637-1
  -OEChem-05192314073D
 Structure written by MMmdl.
 53 54  0     1  0  0  0  0  0999 V2000
   24.0679   12.3974   30.2299 C   0  0  0  0  0  0  0  0  0  0  0  0
   23.3159   11.0783   30.4227 C   0  0  0  0  0  0  0  0  0  0  0  0
   22.2074   11.3318   31.2810 O   0  0  0  0  0  0  0  0  0  0  0  0
   21.4078   10.2815   31.6977 C   0  0  0  0  0  0  0  0  0  0  0  0
   21.7477    9.0318   31.2791 N   0  0  0  0  0  0  0  0  0  0  0  0
   20.9736    8.0017   31.6536 C   0  0  0  0  0  0  0  0  0  0  0  0
   19.8665    8.1461   32.4779 C   0  0  0  0  0  0  0  0  0  0  0  0
   19.5200    9.4177   32.8981 C   0  0  0  0  0  0  0  0  0  0  0  0
   18.3829    9.4988   33.6931 N   0  0  0  0  0  0  0  0  0  0  0  0
   20.2909   10.5235   32.5051 C   0  0  0  0  0  0  0  0  0  0  0  0
   19.9670   11.8935   32.8853 C   0  0  0  0  0  0  0  0  0  0  0  0
   19.7174   12.9843   33.1812 N   0  0  0  0  0  0  0  0  0  0  0  0
   21.4331    6.8194   31.1098 N   0  0  0  0  0  0  0  0  0  0  0  0
   20.8527    5.6189   31.0281 C   0  0  0  0  0  0  0  0  0  0  0  0
   19.7272    5.3573   31.4476 O   0  0  0  0  0  0  0  0  0  0  0  0
   21.6390    4.5479   30.2799 C   0  0  0  0  0  0  0  0  0  0  0  0
   23.0290    4.2861   30.8549 C   0  0  0  0  0  0  0  0  0  0  0  0
   24.1071    5.1197   30.5266 C   0  0  0  0  0  0  0  0  0  0  0  0
   23.8494    6.2028   29.7043 O   0  0  0  0  0  0  0  0  0  0  0  0
   24.8536    7.1989   29.5184 C   0  0  0  0  0  0  0  0  0  0  0  0
   25.3718    4.8226   31.0461 C   0  0  0  0  0  0  0  0  0  0  0  0
   25.5645    3.7381   31.9139 C   0  0  0  0  0  0  0  0  0  0  0  0
   24.4775    2.9179   32.2550 C   0  0  3  0  0  0  0  0  0  0  0  0
   23.2164    3.1999   31.7130 C   0  0  0  0  0  0  0  0  0  0  0  0
   24.7079    1.8722   33.1347 O   0  0  0  0  0  0  0  0  0  0  0  0
   23.7954    0.7759   33.1653 C   0  0  0  0  0  0  0  0  0  0  0  0
   26.8105    3.4129   32.4986 N   0  0  0  0  0  0  0  0  0  0  0  0
   28.0304    3.9580   32.3626 C   0  0  0  0  0  0  0  0  0  0  0  0
   28.3090    4.8809   31.6038 O   0  0  0  0  0  0  0  0  0  0  0  0
   29.1268    3.3864   33.2444 C   0  0  0  0  0  0  0  0  0  0  0  0
   24.9324   12.2341   29.5696 H   0  0  0  0  0  0  0  0  0  0  0  0
   23.3951   13.1399   29.7761 H   0  0  0  0  0  0  0  0  0  0  0  0
   24.4166   12.7665   31.2057 H   0  0  0  0  0  0  0  0  0  0  0  0
   22.9596   10.7050   29.4513 H   0  0  0  0  0  0  0  0  0  0  0  0
   23.9811   10.3316   30.8809 H   0  0  0  0  0  0  0  0  0  0  0  0
   19.2892    7.2862   32.7840 H   0  0  0  0  0  0  0  0  0  0  0  0
   18.2177   10.4529   33.9431 H   0  0  0  0  0  0  0  0  0  0  0  0
   17.5962    9.1461   33.1864 H   0  0  0  0  0  0  0  0  0  0  0  0
   19.5301    4.4435   31.2783 H   0  0  0  0  0  0  0  0  0  0  0  0
   21.0667    3.6092   30.3162 H   0  0  0  0  0  0  0  0  0  0  0  0
   21.7517    4.8684   29.2337 H   0  0  0  0  0  0  0  0  0  0  0  0
   24.4769    7.9778   28.8391 H   0  0  0  0  0  0  0  0  0  0  0  0
   25.1064    7.6502   30.4892 H   0  0  0  0  0  0  0  0  0  0  0  0
   25.7522    6.7368   29.0837 H   0  0  0  0  0  0  0  0  0  0  0  0
   26.2151    5.4399   30.7737 H   0  0  0  0  0  0  0  0  0  0  0  0
   24.7015    2.2581   31.4038 H   0  0  0  0  0  0  0  0  0  0  0  0
   22.3768    2.5680   31.9624 H   0  0  0  0  0  0  0  0  0  0  0  0
   24.1278    0.0422   33.9145 H   0  0  0  0  0  0  0  0  0  0  0  0
   22.7922    1.1413   33.4301 H   0  0  0  0  0  0  0  0  0  0  0  0
   23.7622    0.2989   32.1747 H   0  0  0  0  0  0  0  0  0  0  0  0
   30.0677    3.9238   33.0552 H   0  0  0  0  0  0  0  0  0  0  0  0
   28.8447    3.5020   34.3013 H   0  0  0  0  0  0  0  0  0  0  0  0
   29.2620    2.3190   33.0156 H   0  0  0  0  0  0  0  0  0  0  0  0
  1  2  1  0  0  0  0
  2  3  1  0  0  0  0
  3  4  1  0  0  0  0
  4 10  2  0  0  0  0
  4  5  1  0  0  0  0
  5  6  2  0  0  0  0
  6  7  1  0  0  0  0
  6 13  1  0  0  0  0
  7  8  2  0  0  0  0
  8  9  1  0  0  0  0
  8 10  1  0  0  0  0
 10 11  1  0  0  0  0
 11 12  3  0  0  0  0
 13 14  2  0  0  0  0
 14 15  1  0  0  0  0
 14 16  1  0  0  0  0
 16 17  1  0  0  0  0
 17 24  2  0  0  0  0
 17 18  1  0  0  0  0
 18 19  1  0  0  0  0
 18 21  2  0  0  0  0
 19 20  1  0  0  0  0
 21 22  1  0  0  0  0
 22 23  1  0  0  0  0
 22 27  2  0  0  0  0
 23 24  1  0  0  0  0
 23 25  1  0  0  0  0
 25 26  1  0  0  0  0
 27 28  1  0  0  0  0
 28 29  2  0  0  0  0
 28 30  1  0  0  0  0
  1 31  1  0  0  0  0
  1 32  1  0  0  0  0
  1 33  1  0  0  0  0
  2 34  1  0  0  0  0
  2 35  1  0  0  0  0
  7 36  1  0  0  0  0
  9 37  1  0  0  0  0
  9 38  1  0  0  0  0
 15 39  1  0  0  0  0
 16 40  1  0  0  0  0
 16 41  1  0  0  0  0
 20 42  1  0  0  0  0
 20 43  1  0  0  0  0
 20 44  1  0  0  0  0
 21 45  1  0  0  0  0
 23 46  1  0  0  0  0
 24 47  1  0  0  0  0
 26 48  1  0  0  0  0
 26 49  1  0  0  0  0
 26 50  1  0  0  0  0
 30 51  1  0  0  0  0
 30 52  1  0  0  0  0
 30 53  1  0  0  0  0
M  END
> <i_m_stars>
0

> <r_user_dG.exp>
-10.141692

$$$$
18637-1
  -OEChem-05192314073D
 Structure written by MMmdl.
 53 54  0     0  0  0  0  0  0999 V2000
   24.0679   12.3974   30.2299 C   0  0  0  0  0  0  0  0  0  0  0  0
   23.3159   11.0783   30.4227 C   0  0  0  0  0  0  0  0  0  0  0  0
   22.2074   11.3318   31.2810 O   0  0  0  0  0  0  0  0  0  0  0  0
   21.4078   10.2815   31.6977 C   0  0  0  0  0  0  0  0  0  0  0  0
   21.7477    9.0318   31.2791 N   0  0  0  0  0  0  0  0  0  0  0  0
   20.9736    8.0017   31.6536 C   0  0  0  0  0  0  0  0  0  0  0  0
   19.8665    8.1461   32.4779 C   0  0  0  0  0  0  0  0  0  0  0  0
   19.5200    9.4177   32.8981 C   0  0  0  0  0  0  0  0  0  0  0  0
   18.3829    9.4988   33.6931 N   0  0  0  0  0  0  0  0  0  0  0  0
   20.2909   10.5235   32.5051 C   0  0  0  0  0  0  0  0  0  0  0  0
   19.9670   11.8935   32.8853 C   0  0  0  0  0  0  0  0  0  0  0  0
   19.7174   12.9843   33.1812 N   0  0  0  0  0  0  0  0  0  0  0  0
   21.4331    6.8194   31.1098 N   0  0  0  0  0  0  0  0  0  0  0  0
   20.8527    5.6189   31.0281 C   0  0  0  0  0  0  0  0  0  0  0  0
   19.7272    5.3573   31.4476 O   0  0  0  0  0  0  0  0  0  0  0  0
   21.6390    4.5479   30.2799 C   0  0  0  0  0  0  0  0  0  0  0  0
   23.0290    4.2861   30.8549 C   0  0  0  0  0  0  0  0  0  0  0  0
   24.1071    5.1197   30.5266 C   0  0  0  0  0  0  0  0  0  0  0  0
   23.8494    6.2028   29.7043 O   0  0  0  0  0  0  0  0  0  0  0  0
   24.8536    7.1989   29.5184 C   0  0  0  0  0  0  0  0  0  0  0  0
   25.3718    4.8226   31.0461 C   0  0  0  0  0  0  0  0  0  0  0  0
   25.5645    3.7381   31.9139 C   0  0  0  0  0  0  0  0  0  0  0  0
   24.4775    2.9179   32.2550 C   0  0  0  0  0  0  0  0  0  0  0  0
   23.2164    3.1999   31.7130 C   0  0  0  0  0  0  0  0  0  0  0  0
   24.7079    1.8722   33.1347 O   0  0  0  0  0  0  0  0  0  0  0  0
   23.7954    0.7759   33.1653 C   0  0  0  0  0  0  0  0  0  0  0  0
   26.8105    3.4129   32.4986 N   0  0  0  0  0  0  0  0  0  0  0  0
   28.0304    3.9580   32.3626 C   0  0  0  0  0  0  0  0  0  0  0  0
   28.3090    4.8809   31.6038 O   0  0  0  0  0  0  0  0  0  0  0  0
   29.1268    3.3864   33.2444 C   0  0  0  0  0  0  0  0  0  0  0  0
   24.9324   12.2341   29.5696 H   0  0  0  0  0  0  0  0  0  0  0  0
   23.3951   13.1399   29.7761 H   0  0  0  0  0  0  0  0  0  0  0  0
   24.4166   12.7665   31.2057 H   0  0  0  0  0  0  0  0  0  0  0  0
   22.9596   10.7050   29.4513 H   0  0  0  0  0  0  0  0  0  0  0  0
   23.9811   10.3316   30.8809 H   0  0  0  0  0  0  0  0  0  0  0  0
   19.2892    7.2862   32.7840 H   0  0  0  0  0  0  0  0  0  0  0  0
   18.2177   10.4529   33.9431 H   0  0  0  0  0  0  0  0  0  0  0  0
   17.5962    9.1461   33.1864 H   0  0  0  0  0  0  0  0  0  0  0  0
   19.5301    4.4435   31.2783 H   0  0  0  0  0  0  0  0  0  0  0  0
   21.0667    3.6092   30.3162 H   0  0  0  0  0  0  0  0  0  0  0  0
   21.7517    4.8684   29.2337 H   0  0  0  0  0  0  0  0  0  0  0  0
   24.4769    7.9778   28.8391 H   0  0  0  0  0  0  0  0  0  0  0  0
   25.1064    7.6502   30.4892 H   0  0  0  0  0  0  0  0  0  0  0  0
   25.7522    6.7368   29.0837 H   0  0  0  0  0  0  0  0  0  0  0  0
   26.0313    4.6517   30.1824 H   0  0  0  0  0  0  0  0  0  0  0  0
   25.7041    5.7195   31.5894 H   0  0  0  0  0  0  0  0  0  0  0  0
   22.3768    2.5680   31.9624 H   0  0  0  0  0  0  0  0  0  0  0  0
   24.1278    0.0422   33.9145 H   0  0  0  0  0  0  0  0  0  0  0  0
   22.7922    1.1413   33.4301 H   0  0  0  0  0  0  0  0  0  0  0  0
   23.7622    0.2989   32.1747 H   0  0  0  0  0  0  0  0  0  0  0  0
   30.0677    3.9238   33.0552 H   0  0  0  0  0  0  0  0  0  0  0  0
   28.8447    3.5020   34.3013 H   0  0  0  0  0  0  0  0  0  0  0  0
   29.2620    2.3190   33.0156 H   0  0  0  0  0  0  0  0  0  0  0  0
  1  2  1  0  0  0  0
  2  3  1  0  0  0  0
  3  4  1  0  0  0  0
  4 10  2  0  0  0  0
  4  5  1  0  0  0  0
  5  6  2  0  0  0  0
  6  7  1  0  0  0  0
  6 13  1  0  0  0  0
  7  8  2  0  0  0  0
  8  9  1  0  0  0  0
  8 10  1  0  0  0  0
 10 11  1  0  0  0  0
 11 12  3  0  0  0  0
 13 14  2  0  0  0  0
 14 15  1  0  0  0  0
 14 16  1  0  0  0  0
 16 17  1  0  0  0  0
 17 24  1  0  0  0  0
 17 18  2  0  0  0  0
 18 19  1  0  0  0  0
 18 21  1  0  0  0  0
 19 20  1  0  0  0  0
 21 22  1  0  0  0  0
 22 23  1  0  0  0  0
 22 27  2  0  0  0  0
 23 24  2  0  0  0  0
 23 25  1  0  0  0  0
 25 26  1  0  0  0  0
 27 28  1  0  0  0  0
 28 29  2  0  0  0  0
 28 30  1  0  0  0  0
  1 31  1  0  0  0  0
  1 32  1  0  0  0  0
  1 33  1  0  0  0  0
  2 34  1  0  0  0  0
  2 35  1  0  0  0  0
  7 36  1  0  0  0  0
  9 37  1  0  0  0  0
  9 38  1  0  0  0  0
 15 39  1  0  0  0  0
 16 40  1  0  0  0  0
 16 41  1  0  0  0  0
 20 42  1  0  0  0  0
 20 43  1  0  0  0  0
 20 44  1  0  0  0  0
 21 45  1  0  0  0  0
 21 46  1  0  0  0  0
 24 47  1  0  0  0  0
 26 48  1  0  0  0  0
 26 49  1  0  0  0  0
 26 50  1  0  0  0  0
 30 51  1  0  0  0  0
 30 52  1  0  0  0  0
 30 53  1  0  0  0  0
M  END
> <i_m_stars>
0

> <r_user_dG.exp>
-10.141692

$$$$
18637-1
  -OEChem-05192314073D
 Structure written by MMmdl.
 53 54  0     1  0  0  0  0  0999 V2000
   24.0679   12.3974   30.2299 C   0  0  0  0  0  0  0  0  0  0  0  0
   23.3159   11.0783   30.4227 C   0  0  0  0  0  0  0  0  0  0  0  0
   22.2074   11.3318   31.2810 O   0  0  0  0  0  0  0  0  0  0  0  0
   21.4078   10.2815   31.6977 C   0  0  0  0  0  0  0  0  0  0  0  0
   21.7477    9.0318   31.2791 N   0  0  0  0  0  0  0  0  0  0  0  0
   20.9736    8.0017   31.6536 C   0  0  0  0  0  0  0  0  0  0  0  0
   19.8665    8.1461   32.4779 C   0  0  0  0  0  0  0  0  0  0  0  0
   19.5200    9.4177   32.8981 C   0  0  0  0  0  0  0  0  0  0  0  0
   18.3829    9.4988   33.6931 N   0  0  0  0  0  0  0  0  0  0  0  0
   20.2909   10.5235   32.5051 C   0  0  0  0  0  0  0  0  0  0  0  0
   19.9670   11.8935   32.8853 C   0  0  0  0  0  0  0  0  0  0  0  0
   19.7174   12.9843   33.1812 N   0  0  0  0  0  0  0  0  0  0  0  0
   21.4331    6.8194   31.1098 N   0  0  0  0  0  0  0  0  0  0  0  0
   20.8527    5.6189   31.0281 C   0  0  0  0  0  0  0  0  0  0  0  0
   19.7272    5.3573   31.4476 O   0  0  0  0  0  0  0  0  0  0  0  0
   21.6390    4.5479   30.2799 C   0  0  0  0  0  0  0  0  0  0  0  0
   23.0290    4.2861   30.8549 C   0  0  3  0  0  0  0  0  0  0  0  0
   24.1071    5.1197   30.5266 C   0  0  0  0  0  0  0  0  0  0  0  0
   23.8494    6.2028   29.7043 O   0  0  0  0  0  0  0  0  0  0  0  0
   24.8536    7.1989   29.5184 C   0  0  0  0  0  0  0  0  0  0  0  0
   25.3718    4.8226   31.0461 C   0  0  0  0  0  0  0  0  0  0  0  0
   25.5645    3.7381   31.9139 C   0  0  0  0  0  0  0  0  0  0  0  0
   24.4775    2.9179   32.2550 C   0  0  0  0  0  0  0  0  0  0  0  0
   23.2164    3.1999   31.7130 C   0  0  0  0  0  0  0  0  0  0  0  0
   24.7079    1.8722   33.1347 O   0  0  0  0  0  0  0  0  0  0  0  0
   23.7954    0.7759   33.1653 C   0  0  0  0  0  0  0  0  0  0  0  0
   26.8105    3.4129   32.4986 N   0  0  0  0  0  0  0  0  0  0  0  0
   28.0304    3.9580   32.3626 C   0  0  0  0  0  0  0  0  0  0  0  0
   28.3090    4.8809   31.6038 O   0  0  0  0  0  0  0  0  0  0  0  0
   29.1268    3.3864   33.2444 C   0  0  0  0  0  0  0  0  0  0  0  0
   24.9324   12.2341   29.5696 H   0  0  0  0  0  0  0  0  0  0  0  0
   23.3951   13.1399   29.7761 H   0  0  0  0  0  0  0  0  0  0  0  0
   24.4166   12.7665   31.2057 H   0  0  0  0  0  0  0  0  0  0  0  0
   22.9596   10.7050   29.4513 H   0  0  0  0  0  0  0  0  0  0  0  0
   23.9811   10.3316   30.8809 H   0  0  0  0  0  0  0  0  0  0  0  0
   22.5544    8.8849   30.7066 H   0  0  0  0  0  0  0  0  0  0  0  0
   19.2892    7.2862   32.7840 H   0  0  0  0  0  0  0  0  0  0  0  0
   18.1753   10.4413   33.9549 H   0  0  0  0  0  0  0  0  0  0  0  0
   22.3494    6.8695   30.7124 H   0  0  0  0  0  0  0  0  0  0  0  0
   21.0667    3.6092   30.3162 H   0  0  0  0  0  0  0  0  0  0  0  0
   21.7517    4.8684   29.2337 H   0  0  0  0  0  0  0  0  0  0  0  0
   22.7942    4.9278   31.7169 H   0  0  0  0  0  0  0  0  0  0  0  0
   24.4769    7.9778   28.8391 H   0  0  0  0  0  0  0  0  0  0  0  0
   25.1064    7.6502   30.4892 H   0  0  0  0  0  0  0  0  0  0  0  0
   25.7522    6.7368   29.0837 H   0  0  0  0  0  0  0  0  0  0  0  0
   26.2151    5.4399   30.7737 H   0  0  0  0  0  0  0  0  0  0  0  0
   22.3768    2.5680   31.9624 H   0  0  0  0  0  0  0  0  0  0  0  0
   24.1278    0.0422   33.9145 H   0  0  0  0  0  0  0  0  0  0  0  0
   22.7922    1.1413   33.4301 H   0  0  0  0  0  0  0  0  0  0  0  0
   23.7622    0.2989   32.1747 H   0  0  0  0  0  0  0  0  0  0  0  0
   30.0677    3.9238   33.0552 H   0  0  0  0  0  0  0  0  0  0  0  0
   28.8447    3.5020   34.3013 H   0  0  0  0  0  0  0  0  0  0  0  0
   29.2620    2.3190   33.0156 H   0  0  0  0  0  0  0  0  0  0  0  0
  1  2  1  0  0  0  0
  2  3  1  0  0  0  0
  3  4  1  0  0  0  0
  4 10  2  0  0  0  0
  4  5  1  0  0  0  0
  5  6  1  0  0  0  0
  6  7  2  0  0  0  0
  6 13  1  0  0  0  0
  7  8  1  0  0  0  0
  8  9  2  0  0  0  0
  8 10  1  0  0  0  0
 10 11  1  0  0  0  0
 11 12  3  0  0  0  0
 13 14  1  0  0  0  0
 14 15  2  0  0  0  0
 14 16  1  0  0  0  0
 16 17  1  0  0  0  0
 17 24  1  0  0  0  0
 17 18  1  0  0  0  0
 18 19  1  0  0  0  0
 18 21  2  0  0  0  0
 19 20  1  0  0  0  0
 21 22  1  0  0  0  0
 22 23  1  0  0  0  0
 22 27  2  0  0  0  0
 23 24  2  0  0  0  0
 23 25  1  0  0  0  0
 25 26  1  0  0  0  0
 27 28  1  0  0  0  0
 28 29  2  0  0  0  0
 28 30  1  0  0  0  0
  1 31  1  0  0  0  0
  1 32  1  0  0  0  0
  1 33  1  0  0  0  0
  2 34  1  0  0  0  0
  2 35  1  0  0  0  0
  5 36  1  0  0  0  0
  7 37  1  0  0  0  0
  9 38  1  0  0  0  0
 13 39  1  0  0  0  0
 16 40  1  0  0  0  0
 16 41  1  0  0  0  0
 17 42  1  0  0  0  0
 20 43  1  0  0  0  0
 20 44  1  0  0  0  0
 20 45  1  0  0  0  0
 21 46  1  0  0  0  0
 24 47  1  0  0  0  0
 26 48  1  0  0  0  0
 26 49  1  0  0  0  0
 26 50  1  0  0  0  0
 30 51  1  0  0  0  0
 30 52  1  0  0  0  0
 30 53  1  0  0  0  0
M  END
> <i_m_stars>
0

> <r_user_dG.exp>
-10.141692

$$$$
18637-1
  -OEChem-05192314073D
 Structure written by MMmdl.
 53 54  0     1  0  0  0  0  0999 V2000
   24.0679   12.3974   30.2299 C   0  0  0  0  0  0  0  0  0  0  0  0
   23.3159   11.0783   30.4227 C   0  0  0  0  0  0  0  0  0  0  0  0
   22.2074   11.3318   31.2810 O   0  0  0  0  0  0  0  0  0  0  0  0
   21.4078   10.2815   31.6977 C   0  0  0  0  0  0  0  0  0  0  0  0
   21.7477    9.0318   31.2791 N   0  0  0  0  0  0  0  0  0  0  0  0
   20.9736    8.0017   31.6536 C   0  0  0  0  0  0  0  0  0  0  0  0
   19.8665    8.1461   32.4779 C   0  0  0  0  0  0  0  0  0  0  0  0
   19.5200    9.4177   32.8981 C   0  0  0  0  0  0  0  0  0  0  0  0
   18.3829    9.4988   33.6931 N   0  0  0  0  0  0  0  0  0  0  0  0
   20.2909   10.5235   32.5051 C   0  0  0  0  0  0  0  0  0  0  0  0
   19.9670   11.8935   32.8853 C   0  0  0  0  0  0  0  0  0  0  0  0
   19.7174   12.9843   33.1812 N   0  0  0  0  0  0  0  0  0  0  0  0
   21.4331    6.8194   31.1098 N   0  0  0  0  0  0  0  0  0  0  0  0
   20.8527    5.6189   31.0281 C   0  0  0  0  0  0  0  0  0  0  0  0
   19.7272    5.3573   31.4476 O   0  0  0  0  0  0  0  0  0  0  0  0
   21.6390    4.5479   30.2799 C   0  0  0  0  0  0  0  0  0  0  0  0
   23.0290    4.2861   30.8549 C   0  0  0  0  0  0  0  0  0  0  0  0
   24.1071    5.1197   30.5266 C   0  0  0  0  0  0  0  0  0  0  0  0
   23.8494    6.2028   29.7043 O   0  0  0  0  0  0  0  0  0  0  0  0
   24.8536    7.1989   29.5184 C   0  0  0  0  0  0  0  0  0  0  0  0
   25.3718    4.8226   31.0461 C   0  0  0  0  0  0  0  0  0  0  0  0
   25.5645    3.7381   31.9139 C   0  0  0  0  0  0  0  0  0  0  0  0
   24.4775    2.9179   32.2550 C   0  0  3  0  0  0  0  0  0  0  0  0
   23.2164    3.1999   31.7130 C   0  0  0  0  0  0  0  0  0  0  0  0
   24.7079    1.8722   33.1347 O   0  0  0  0  0  0  0  0  0  0  0  0
   23.7954    0.7759   33.1653 C   0  0  0  0  0  0  0  0  0  0  0  0
   26.8105    3.4129   32.4986 N   0  0  0  0  0  0  0  0  0  0  0  0
   28.0304    3.9580   32.3626 C   0  0  0  0  0  0  0  0  0  0  0  0
   28.3090    4.8809   31.6038 O   0  0  0  0  0  0  0  0  0  0  0  0
   29.1268    3.3864   33.2444 C   0  0  0  0  0  0  0  0  0  0  0  0
   24.9324   12.2341   29.5696 H   0  0  0  0  0  0  0  0  0  0  0  0
   23.3951   13.1399   29.7761 H   0  0  0  0  0  0  0  0  0  0  0  0
   24.4166   12.7665   31.2057 H   0  0  0  0  0  0  0  0  0  0  0  0
   22.9596   10.7050   29.4513 H   0  0  0  0  0  0  0  0  0  0  0  0
   23.9811   10.3316   30.8809 H   0  0  0  0  0  0  0  0  0  0  0  0
   22.5544    8.8849   30.7066 H   0  0  0  0  0  0  0  0  0  0  0  0
   19.2892    7.2862   32.7840 H   0  0  0  0  0  0  0  0  0  0  0  0
   18.1753   10.4413   33.9549 H   0  0  0  0  0  0  0  0  0  0  0  0
   22.3494    6.8695   30.7124 H   0  0  0  0  0  0  0  0  0  0  0  0
   21.0667    3.6092   30.3162 H   0  0  0  0  0  0  0  0  0  0  0  0
   21.7517    4.8684   29.2337 H   0  0  0  0  0  0  0  0  0  0  0  0
   24.4769    7.9778   28.8391 H   0  0  0  0  0  0  0  0  0  0  0  0
   25.1064    7.6502   30.4892 H   0  0  0  0  0  0  0  0  0  0  0  0
   25.7522    6.7368   29.0837 H   0  0  0  0  0  0  0  0  0  0  0  0
   26.2151    5.4399   30.7737 H   0  0  0  0  0  0  0  0  0  0  0  0
   24.7015    2.2581   31.4038 H   0  0  0  0  0  0  0  0  0  0  0  0
   22.3768    2.5680   31.9624 H   0  0  0  0  0  0  0  0  0  0  0  0
   24.1278    0.0422   33.9145 H   0  0  0  0  0  0  0  0  0  0  0  0
   22.7922    1.1413   33.4301 H   0  0  0  0  0  0  0  0  0  0  0  0
   23.7622    0.2989   32.1747 H   0  0  0  0  0  0  0  0  0  0  0  0
   30.0677    3.9238   33.0552 H   0  0  0  0  0  0  0  0  0  0  0  0
   28.8447    3.5020   34.3013 H   0  0  0  0  0  0  0  0  0  0  0  0
   29.2620    2.3190   33.0156 H   0  0  0  0  0  0  0  0  0  0  0  0
  1  2  1  0  0  0  0
  2  3  1  0  0  0  0
  3  4  1  0  0  0  0
  4 10  2  0  0  0  0
  4  5  1  0  0  0  0
  5  6  1  0  0  0  0
  6  7  2  0  0  0  0
  6 13  1  0  0  0  0
  7  8  1  0  0  0  0
  8  9  2  0  0  0  0
  8 10  1  0  0  0  0
 10 11  1  0  0  0  0
 11 12  3  0  0  0  0
 13 14  1  0  0  0  0
 14 15  2  0  0  0  0
 14 16  1  0  0  0  0
 16 17  1  0  0  0  0
 17 24  2  0  0  0  0
 17 18  1  0  0  0  0
 18 19  1  0  0  0  0
 18 21  2  0  0  0  0
 19 20  1  0  0  0  0
 21 22  1  0  0  0  0
 22 23  1  0  0  0  0
 22 27  2  0  0  0  0
 23 24  1  0  0  0  0
 23 25  1  0  0  0  0
 25 26  1  0  0  0  0
 27 28  1  0  0  0  0
 28 29  2  0  0  0  0
 28 30  1  0  0  0  0
  1 31  1  0  0  0  0
  1 32  1  0  0  0  0
  1 33  1  0  0  0  0
  2 34  1  0  0  0  0
  2 35  1  0  0  0  0
  5 36  1  0  0  0  0
  7 37  1  0  0  0  0
  9 38  1  0  0  0  0
 13 39  1  0  0  0  0
 16 40  1  0  0  0  0
 16 41  1  0  0  0  0
 20 42  1  0  0  0  0
 20 43  1  0  0  0  0
 20 44  1  0  0  0  0
 21 45  1  0  0  0  0
 23 46  1  0  0  0  0
 24 47  1  0  0  0  0
 26 48  1  0  0  0  0
 26 49  1  0  0  0  0
 26 50  1  0  0  0  0
 30 51  1  0  0  0  0
 30 52  1  0  0  0  0
 30 53  1  0  0  0  0
M  END
> <i_m_stars>
0

> <r_user_dG.exp>
-10.141692

$$$$
18637-1
  -OEChem-05192314073D
 Structure written by MMmdl.
 53 54  0     0  0  0  0  0  0999 V2000
   24.0679   12.3974   30.2299 C   0  0  0  0  0  0  0  0  0  0  0  0
   23.3159   11.0783   30.4227 C   0  0  0  0  0  0  0  0  0  0  0  0
   22.2074   11.3318   31.2810 O   0  0  0  0  0  0  0  0  0  0  0  0
   21.4078   10.2815   31.6977 C   0  0  0  0  0  0  0  0  0  0  0  0
   21.7477    9.0318   31.2791 N   0  0  0  0  0  0  0  0  0  0  0  0
   20.9736    8.0017   31.6536 C   0  0  0  0  0  0  0  0  0  0  0  0
   19.8665    8.1461   32.4779 C   0  0  0  0  0  0  0  0  0  0  0  0
   19.5200    9.4177   32.8981 C   0  0  0  0  0  0  0  0  0  0  0  0
   18.3829    9.4988   33.6931 N   0  0  0  0  0  0  0  0  0  0  0  0
   20.2909   10.5235   32.5051 C   0  0  0  0  0  0  0  0  0  0  0  0
   19.9670   11.8935   32.8853 C   0  0  0  0  0  0  0  0  0  0  0  0
   19.7174   12.9843   33.1812 N   0  0  0  0  0  0  0  0  0  0  0  0
   21.4331    6.8194   31.1098 N   0  0  0  0  0  0  0  0  0  0  0  0
   20.8527    5.6189   31.0281 C   0  0  0  0  0  0  0  0  0  0  0  0
   19.7272    5.3573   31.4476 O   0  0  0  0  0  0  0  0  0  0  0  0
   21.6390    4.5479   30.2799 C   0  0  0  0  0  0  0  0  0  0  0  0
   23.0290    4.2861   30.8549 C   0  0  0  0  0  0  0  0  0  0  0  0
   24.1071    5.1197   30.5266 C   0  0  0  0  0  0  0  0  0  0  0  0
   23.8494    6.2028   29.7043 O   0  0  0  0  0  0  0  0  0  0  0  0
   24.8536    7.1989   29.5184 C   0  0  0  0  0  0  0  0  0  0  0  0
   25.3718    4.8226   31.0461 C   0  0  0  0  0  0  0  0  0  0  0  0
   25.5645    3.7381   31.9139 C   0  0  0  0  0  0  0  0  0  0  0  0
   24.4775    2.9179   32.2550 C   0  0  0  0  0  0  0  0  0  0  0  0
   23.2164    3.1999   31.7130 C   0  0  0  0  0  0  0  0  0  0  0  0
   24.7079    1.8722   33.1347 O   0  0  0  0  0  0  0  0  0  0  0  0
   23.7954    0.7759   33.1653 C   0  0  0  0  0  0  0  0  0  0  0  0
   26.8105    3.4129   32.4986 N   0  0  0  0  0  0  0  0  0  0  0  0
   28.0304    3.9580   32.3626 C   0  0  0  0  0  0  0  0  0  0  0  0
   28.3090    4.8809   31.6038 O   0  0  0  0  0  0  0  0  0  0  0  0
   29.1268    3.3864   33.2444 C   0  0  0  0  0  0  0  0  0  0  0  0
   24.9324   12.2341   29.5696 H   0  0  0  0  0  0  0  0  0  0  0  0
   23.3951   13.1399   29.7761 H   0  0  0  0  0  0  0  0  0  0  0  0
   24.4166   12.7665   31.2057 H   0  0  0  0  0  0  0  0  0  0  0  0
   22.9596   10.7050   29.4513 H   0  0  0  0  0  0  0  0  0  0  0  0
   23.9811   10.3316   30.8809 H   0  0  0  0  0  0  0  0  0  0  0  0
   22.5544    8.8849   30.7066 H   0  0  0  0  0  0  0  0  0  0  0  0
   19.2892    7.2862   32.7840 H   0  0  0  0  0  0  0  0  0  0  0  0
   18.1753   10.4413   33.9549 H   0  0  0  0  0  0  0  0  0  0  0  0
   22.3494    6.8695   30.7124 H   0  0  0  0  0  0  0  0  0  0  0  0
   21.0667    3.6092   30.3162 H   0  0  0  0  0  0  0  0  0  0  0  0
   21.7517    4.8684   29.2337 H   0  0  0  0  0  0  0  0  0  0  0  0
   24.4769    7.9778   28.8391 H   0  0  0  0  0  0  0  0  0  0  0  0
   25.1064    7.6502   30.4892 H   0  0  0  0  0  0  0  0  0  0  0  0
   25.7522    6.7368   29.0837 H   0  0  0  0  0  0  0  0  0  0  0  0
   26.0313    4.6517   30.1824 H   0  0  0  0  0  0  0  0  0  0  0  0
   25.7041    5.7195   31.5894 H   0  0  0  0  0  0  0  0  0  0  0  0
   22.3768    2.5680   31.9624 H   0  0  0  0  0  0  0  0  0  0  0  0
   24.1278    0.0422   33.9145 H   0  0  0  0  0  0  0  0  0  0  0  0
   22.7922    1.1413   33.4301 H   0  0  0  0  0  0  0  0  0  0  0  0
   23.7622    0.2989   32.1747 H   0  0  0  0  0  0  0  0  0  0  0  0
   30.0677    3.9238   33.0552 H   0  0  0  0  0  0  0  0  0  0  0  0
   28.8447    3.5020   34.3013 H   0  0  0  0  0  0  0  0  0  0  0  0
   29.2620    2.3190   33.0156 H   0  0  0  0  0  0  0  0  0  0  0  0
  1  2  1  0  0  0  0
  2  3  1  0  0  0  0
  3  4  1  0  0  0  0
  4 10  2  0  0  0  0
  4  5  1  0  0  0  0
  5  6  1  0  0  0  0
  6  7  2  0  0  0  0
  6 13  1  0  0  0  0
  7  8  1  0  0  0  0
  8  9  2  0  0  0  0
  8 10  1  0  0  0  0
 10 11  1  0  0  0  0
 11 12  3  0  0  0  0
 13 14  1  0  0  0  0
 14 15  2  0  0  0  0
 14 16  1  0  0  0  0
 16 17  1  0  0  0  0
 17 24  1  0  0  0  0
 17 18  2  0  0  0  0
 18 19  1  0  0  0  0
 18 21  1  0  0  0  0
 19 20  1  0  0  0  0
 21 22  1  0  0  0  0
 22 23  1  0  0  0  0
 22 27  2  0  0  0  0
 23 24  2  0  0  0  0
 23 25  1  0  0  0  0
 25 26  1  0  0  0  0
 27 28  1  0  0  0  0
 28 29  2  0  0  0  0
 28 30  1  0  0  0  0
  1 31  1  0  0  0  0
  1 32  1  0  0  0  0
  1 33  1  0  0  0  0
  2 34  1  0  0  0  0
  2 35  1  0  0  0  0
  5 36  1  0  0  0  0
  7 37  1  0  0  0  0
  9 38  1  0  0  0  0
 13 39  1  0  0  0  0
 16 40  1  0  0  0  0
 16 41  1  0  0  0  0
 20 42  1  0  0  0  0
 20 43  1  0  0  0  0
 20 44  1  0  0  0  0
 21 45  1  0  0  0  0
 21 46  1  0  0  0  0
 24 47  1  0  0  0  0
 26 48  1  0  0  0  0
 26 49  1  0  0  0  0
 26 50  1  0  0  0  0
 30 51  1  0  0  0  0
 30 52  1  0  0  0  0
 30 53  1  0  0  0  0
M  END
> <i_m_stars>
0

> <r_user_dG.exp>
-10.141692

$$$$
18637-1
  -OEChem-05192314073D
 Structure written by MMmdl.
 53 54  0     1  0  0  0  0  0999 V2000
   24.0679   12.3974   30.2299 C   0  0  0  0  0  0  0  0  0  0  0  0
   23.3159   11.0783   30.4227 C   0  0  0  0  0  0  0  0  0  0  0  0
   22.2074   11.3318   31.2810 O   0  0  0  0  0  0  0  0  0  0  0  0
   21.4078   10.2815   31.6977 C   0  0  0  0  0  0  0  0  0  0  0  0
   21.7477    9.0318   31.2791 N   0  0  0  0  0  0  0  0  0  0  0  0
   20.9736    8.0017   31.6536 C   0  0  0  0  0  0  0  0  0  0  0  0
   19.8665    8.1461   32.4779 C   0  0  0  0  0  0  0  0  0  0  0  0
   19.5200    9.4177   32.8981 C   0  0  0  0  0  0  0  0  0  0  0  0
   18.3829    9.4988   33.6931 N   0  0  0  0  0  0  0  0  0  0  0  0
   20.2909   10.5235   32.5051 C   0  0  0  0  0  0  0  0  0  0  0  0
   19.9670   11.8935   32.8853 C   0  0  0  0  0  0  0  0  0  0  0  0
   19.7174   12.9843   33.1812 N   0  0  0  0  0  0  0  0  0  0  0  0
   21.4331    6.8194   31.1098 N   0  0  0  0  0  0  0  0  0  0  0  0
   20.8527    5.6189   31.0281 C   0  0  0  0  0  0  0  0  0  0  0  0
   19.7272    5.3573   31.4476 O   0  0  0  0  0  0  0  0  0  0  0  0
   21.6390    4.5479   30.2799 C   0  0  0  0  0  0  0  0  0  0  0  0
   23.0290    4.2861   30.8549 C   0  0  3  0  0  0  0  0  0  0  0  0
   24.1071    5.1197   30.5266 C   0  0  0  0  0  0  0  0  0  0  0  0
   23.8494    6.2028   29.7043 O   0  0  0  0  0  0  0  0  0  0  0  0
   24.8536    7.1989   29.5184 C   0  0  0  0  0  0  0  0  0  0  0  0
   25.3718    4.8226   31.0461 C   0  0  0  0  0  0  0  0  0  0  0  0
   25.5645    3.7381   31.9139 C   0  0  0  0  0  0  0  0  0  0  0  0
   24.4775    2.9179   32.2550 C   0  0  0  0  0  0  0  0  0  0  0  0
   23.2164    3.1999   31.7130 C   0  0  0  0  0  0  0  0  0  0  0  0
   24.7079    1.8722   33.1347 O   0  0  0  0  0  0  0  0  0  0  0  0
   23.7954    0.7759   33.1653 C   0  0  0  0  0  0  0  0  0  0  0  0
   26.8105    3.4129   32.4986 N   0  0  0  0  0  0  0  0  0  0  0  0
   28.0304    3.9580   32.3626 C   0  0  0  0  0  0  0  0  0  0  0  0
   28.3090    4.8809   31.6038 O   0  0  0  0  0  0  0  0  0  0  0  0
   29.1268    3.3864   33.2444 C   0  0  0  0  0  0  0  0  0  0  0  0
   24.9324   12.2341   29.5696 H   0  0  0  0  0  0  0  0  0  0  0  0
   23.3951   13.1399   29.7761 H   0  0  0  0  0  0  0  0  0  0  0  0
   24.4166   12.7665   31.2057 H   0  0  0  0  0  0  0  0  0  0  0  0
   22.9596   10.7050   29.4513 H   0  0  0  0  0  0  0  0  0  0  0  0
   23.9811   10.3316   30.8809 H   0  0  0  0  0  0  0  0  0  0  0  0
   22.5544    8.8849   30.7066 H   0  0  0  0  0  0  0  0  0  0  0  0
   19.2892    7.2862   32.7840 H   0  0  0  0  0  0  0  0  0  0  0  0
   18.2177   10.4529   33.9431 H   0  0  0  0  0  0  0  0  0  0  0  0
   17.5962    9.1461   33.1864 H   0  0  0  0  0  0  0  0  0  0  0  0
   21.0667    3.6092   30.3162 H   0  0  0  0  0  0  0  0  0  0  0  0
   21.7517    4.8684   29.2337 H   0  0  0  0  0  0  0  0  0  0  0  0
   22.7942    4.9278   31.7169 H   0  0  0  0  0  0  0  0  0  0  0  0
   24.4769    7.9778   28.8391 H   0  0  0  0  0  0  0  0  0  0  0  0
   25.1064    7.6502   30.4892 H   0  0  0  0  0  0  0  0  0  0  0  0
   25.7522    6.7368   29.0837 H   0  0  0  0  0  0  0  0  0  0  0  0
   26.2151    5.4399   30.7737 H   0  0  0  0  0  0  0  0  0  0  0  0
   22.3768    2.5680   31.9624 H   0  0  0  0  0  0  0  0  0  0  0  0
   24.1278    0.0422   33.9145 H   0  0  0  0  0  0  0  0  0  0  0  0
   22.7922    1.1413   33.4301 H   0  0  0  0  0  0  0  0  0  0  0  0
   23.7622    0.2989   32.1747 H   0  0  0  0  0  0  0  0  0  0  0  0
   30.0677    3.9238   33.0552 H   0  0  0  0  0  0  0  0  0  0  0  0
   28.8447    3.5020   34.3013 H   0  0  0  0  0  0  0  0  0  0  0  0
   29.2620    2.3190   33.0156 H   0  0  0  0  0  0  0  0  0  0  0  0
  1  2  1  0  0  0  0
  2  3  1  0  0  0  0
  3  4  1  0  0  0  0
  4 10  2  0  0  0  0
  4  5  1  0  0  0  0
  5  6  1  0  0  0  0
  6  7  1  0  0  0  0
  6 13  2  0  0  0  0
  7  8  2  0  0  0  0
  8  9  1  0  0  0  0
  8 10  1  0  0  0  0
 10 11  1  0  0  0  0
 11 12  3  0  0  0  0
 13 14  1  0  0  0  0
 14 15  2  0  0  0  0
 14 16  1  0  0  0  0
 16 17  1  0  0  0  0
 17 24  1  0  0  0  0
 17 18  1  0  0  0  0
 18 19  1  0  0  0  0
 18 21  2  0  0  0  0
 19 20  1  0  0  0  0
 21 22  1  0  0  0  0
 22 23  1  0  0  0  0
 22 27  2  0  0  0  0
 23 24  2  0  0  0  0
 23 25  1  0  0  0  0
 25 26  1  0  0  0  0
 27 28  1  0  0  0  0
 28 29  2  0  0  0  0
 28 30  1  0  0  0  0
  1 31  1  0  0  0  0
  1 32  1  0  0  0  0
  1 33  1  0  0  0  0
  2 34  1  0  0  0  0
  2 35  1  0  0  0  0
  5 36  1  0  0  0  0
  7 37  1  0  0  0  0
  9 38  1  0  0  0  0
  9 39  1  0  0  0  0
 16 40  1  0  0  0  0
 16 41  1  0  0  0  0
 17 42  1  0  0  0  0
 20 43  1  0  0  0  0
 20 44  1  0  0  0  0
 20 45  1  0  0  0  0
 21 46  1  0  0  0  0
 24 47  1  0  0  0  0
 26 48  1  0  0  0  0
 26 49  1  0  0  0  0
 26 50  1  0  0  0  0
 30 51  1  0  0  0  0
 30 52  1  0  0  0  0
 30 53  1  0  0  0  0
M  END
> <i_m_stars>
0

> <r_user_dG.exp>
-10.141692

$$$$
18637-1
  -OEChem-05192314073D
 Structure written by MMmdl.
 53 54  0     1  0  0  0  0  0999 V2000
   24.0679   12.3974   30.2299 C   0  0  0  0  0  0  0  0  0  0  0  0
   23.3159   11.0783   30.4227 C   0  0  0  0  0  0  0  0  0  0  0  0
   22.2074   11.3318   31.2810 O   0  0  0  0  0  0  0  0  0  0  0  0
   21.4078   10.2815   31.6977 C   0  0  0  0  0  0  0  0  0  0  0  0
   21.7477    9.0318   31.2791 N   0  0  0  0  0  0  0  0  0  0  0  0
   20.9736    8.0017   31.6536 C   0  0  0  0  0  0  0  0  0  0  0  0
   19.8665    8.1461   32.4779 C   0  0  0  0  0  0  0  0  0  0  0  0
   19.5200    9.4177   32.8981 C   0  0  0  0  0  0  0  0  0  0  0  0
   18.3829    9.4988   33.6931 N   0  0  0  0  0  0  0  0  0  0  0  0
   20.2909   10.5235   32.5051 C   0  0  0  0  0  0  0  0  0  0  0  0
   19.9670   11.8935   32.8853 C   0  0  0  0  0  0  0  0  0  0  0  0
   19.7174   12.9843   33.1812 N   0  0  0  0  0  0  0  0  0  0  0  0
   21.4331    6.8194   31.1098 N   0  0  0  0  0  0  0  0  0  0  0  0
   20.8527    5.6189   31.0281 C   0  0  0  0  0  0  0  0  0  0  0  0
   19.7272    5.3573   31.4476 O   0  0  0  0  0  0  0  0  0  0  0  0
   21.6390    4.5479   30.2799 C   0  0  0  0  0  0  0  0  0  0  0  0
   23.0290    4.2861   30.8549 C   0  0  0  0  0  0  0  0  0  0  0  0
   24.1071    5.1197   30.5266 C   0  0  0  0  0  0  0  0  0  0  0  0
   23.8494    6.2028   29.7043 O   0  0  0  0  0  0  0  0  0  0  0  0
   24.8536    7.1989   29.5184 C   0  0  0  0  0  0  0  0  0  0  0  0
   25.3718    4.8226   31.0461 C   0  0  0  0  0  0  0  0  0  0  0  0
   25.5645    3.7381   31.9139 C   0  0  0  0  0  0  0  0  0  0  0  0
   24.4775    2.9179   32.2550 C   0  0  3  0  0  0  0  0  0  0  0  0
   23.2164    3.1999   31.7130 C   0  0  0  0  0  0  0  0  0  0  0  0
   24.7079    1.8722   33.1347 O   0  0  0  0  0  0  0  0  0  0  0  0
   23.7954    0.7759   33.1653 C   0  0  0  0  0  0  0  0  0  0  0  0
   26.8105    3.4129   32.4986 N   0  0  0  0  0  0  0  0  0  0  0  0
   28.0304    3.9580   32.3626 C   0  0  0  0  0  0  0  0  0  0  0  0
   28.3090    4.8809   31.6038 O   0  0  0  0  0  0  0  0  0  0  0  0
   29.1268    3.3864   33.2444 C   0  0  0  0  0  0  0  0  0  0  0  0
   24.9324   12.2341   29.5696 H   0  0  0  0  0  0  0  0  0  0  0  0
   23.3951   13.1399   29.7761 H   0  0  0  0  0  0  0  0  0  0  0  0
   24.4166   12.7665   31.2057 H   0  0  0  0  0  0  0  0  0  0  0  0
   22.9596   10.7050   29.4513 H   0  0  0  0  0  0  0  0  0  0  0  0
   23.9811   10.3316   30.8809 H   0  0  0  0  0  0  0  0  0  0  0  0
   22.5544    8.8849   30.7066 H   0  0  0  0  0  0  0  0  0  0  0  0
   19.2892    7.2862   32.7840 H   0  0  0  0  0  0  0  0  0  0  0  0
   18.2177   10.4529   33.9431 H   0  0  0  0  0  0  0  0  0  0  0  0
   17.5962    9.1461   33.1864 H   0  0  0  0  0  0  0  0  0  0  0  0
   21.0667    3.6092   30.3162 H   0  0  0  0  0  0  0  0  0  0  0  0
   21.7517    4.8684   29.2337 H   0  0  0  0  0  0  0  0  0  0  0  0
   24.4769    7.9778   28.8391 H   0  0  0  0  0  0  0  0  0  0  0  0
   25.1064    7.6502   30.4892 H   0  0  0  0  0  0  0  0  0  0  0  0
   25.7522    6.7368   29.0837 H   0  0  0  0  0  0  0  0  0  0  0  0
   26.2151    5.4399   30.7737 H   0  0  0  0  0  0  0  0  0  0  0  0
   24.7015    2.2581   31.4038 H   0  0  0  0  0  0  0  0  0  0  0  0
   22.3768    2.5680   31.9624 H   0  0  0  0  0  0  0  0  0  0  0  0
   24.1278    0.0422   33.9145 H   0  0  0  0  0  0  0  0  0  0  0  0
   22.7922    1.1413   33.4301 H   0  0  0  0  0  0  0  0  0  0  0  0
   23.7622    0.2989   32.1747 H   0  0  0  0  0  0  0  0  0  0  0  0
   30.0677    3.9238   33.0552 H   0  0  0  0  0  0  0  0  0  0  0  0
   28.8447    3.5020   34.3013 H   0  0  0  0  0  0  0  0  0  0  0  0
   29.2620    2.3190   33.0156 H   0  0  0  0  0  0  0  0  0  0  0  0
  1  2  1  0  0  0  0
  2  3  1  0  0  0  0
  3  4  1  0  0  0  0
  4 10  2  0  0  0  0
  4  5  1  0  0  0  0
  5  6  1  0  0  0  0
  6  7  1  0  0  0  0
  6 13  2  0  0  0  0
  7  8  2  0  0  0  0
  8  9  1  0  0  0  0
  8 10  1  0  0  0  0
 10 11  1  0  0  0  0
 11 12  3  0  0  0  0
 13 14  1  0  0  0  0
 14 15  2  0  0  0  0
 14 16  1  0  0  0  0
 16 17  1  0  0  0  0
 17 24  2  0  0  0  0
 17 18  1  0  0  0  0
 18 19  1  0  0  0  0
 18 21  2  0  0  0  0
 19 20  1  0  0  0  0
 21 22  1  0  0  0  0
 22 23  1  0  0  0  0
 22 27  2  0  0  0  0
 23 24  1  0  0  0  0
 23 25  1  0  0  0  0
 25 26  1  0  0  0  0
 27 28  1  0  0  0  0
 28 29  2  0  0  0  0
 28 30  1  0  0  0  0
  1 31  1  0  0  0  0
  1 32  1  0  0  0  0
  1 33  1  0  0  0  0
  2 34  1  0  0  0  0
  2 35  1  0  0  0  0
  5 36  1  0  0  0  0
  7 37  1  0  0  0  0
  9 38  1  0  0  0  0
  9 39  1  0  0  0  0
 16 40  1  0  0  0  0
 16 41  1  0  0  0  0
 20 42  1  0  0  0  0
 20 43  1  0  0  0  0
 20 44  1  0  0  0  0
 21 45  1  0  0  0  0
 23 46  1  0  0  0  0
 24 47  1  0  0  0  0
 26 48  1  0  0  0  0
 26 49  1  0  0  0  0
 26 50  1  0  0  0  0
 30 51  1  0  0  0  0
 30 52  1  0  0  0  0
 30 53  1  0  0  0  0
M  END
> <i_m_stars>
0

> <r_user_dG.exp>
-10.141692

$$$$
18637-1
  -OEChem-05192314073D
 Structure written by MMmdl.
 53 54  0     0  0  0  0  0  0999 V2000
   24.0679   12.3974   30.2299 C   0  0  0  0  0  0  0  0  0  0  0  0
   23.3159   11.0783   30.4227 C   0  0  0  0  0  0  0  0  0  0  0  0
   22.2074   11.3318   31.2810 O   0  0  0  0  0  0  0  0  0  0  0  0
   21.4078   10.2815   31.6977 C   0  0  0  0  0  0  0  0  0  0  0  0
   21.7477    9.0318   31.2791 N   0  0  0  0  0  0  0  0  0  0  0  0
   20.9736    8.0017   31.6536 C   0  0  0  0  0  0  0  0  0  0  0  0
   19.8665    8.1461   32.4779 C   0  0  0  0  0  0  0  0  0  0  0  0
   19.5200    9.4177   32.8981 C   0  0  0  0  0  0  0  0  0  0  0  0
   18.3829    9.4988   33.6931 N   0  0  0  0  0  0  0  0  0  0  0  0
   20.2909   10.5235   32.5051 C   0  0  0  0  0  0  0  0  0  0  0  0
   19.9670   11.8935   32.8853 C   0  0  0  0  0  0  0  0  0  0  0  0
   19.7174   12.9843   33.1812 N   0  0  0  0  0  0  0  0  0  0  0  0
   21.4331    6.8194   31.1098 N   0  0  0  0  0  0  0  0  0  0  0  0
   20.8527    5.6189   31.0281 C   0  0  0  0  0  0  0  0  0  0  0  0
   19.7272    5.3573   31.4476 O   0  0  0  0  0  0  0  0  0  0  0  0
   21.6390    4.5479   30.2799 C   0  0  0  0  0  0  0  0  0  0  0  0
   23.0290    4.2861   30.8549 C   0  0  0  0  0  0  0  0  0  0  0  0
   24.1071    5.1197   30.5266 C   0  0  0  0  0  0  0  0  0  0  0  0
   23.8494    6.2028   29.7043 O   0  0  0  0  0  0  0  0  0  0  0  0
   24.8536    7.1989   29.5184 C   0  0  0  0  0  0  0  0  0  0  0  0
   25.3718    4.8226   31.0461 C   0  0  0  0  0  0  0  0  0  0  0  0
   25.5645    3.7381   31.9139 C   0  0  0  0  0  0  0  0  0  0  0  0
   24.4775    2.9179   32.2550 C   0  0  0  0  0  0  0  0  0  0  0  0
   23.2164    3.1999   31.7130 C   0  0  0  0  0  0  0  0  0  0  0  0
   24.7079    1.8722   33.1347 O   0  0  0  0  0  0  0  0  0  0  0  0
   23.7954    0.7759   33.1653 C   0  0  0  0  0  0  0  0  0  0  0  0
   26.8105    3.4129   32.4986 N   0  0  0  0  0  0  0  0  0  0  0  0
   28.0304    3.9580   32.3626 C   0  0  0  0  0  0  0  0  0  0  0  0
   28.3090    4.8809   31.6038 O   0  0  0  0  0  0  0  0  0  0  0  0
   29.1268    3.3864   33.2444 C   0  0  0  0  0  0  0  0  0  0  0  0
   24.9324   12.2341   29.5696 H   0  0  0  0  0  0  0  0  0  0  0  0
   23.3951   13.1399   29.7761 H   0  0  0  0  0  0  0  0  0  0  0  0
   24.4166   12.7665   31.2057 H   0  0  0  0  0  0  0  0  0  0  0  0
   22.9596   10.7050   29.4513 H   0  0  0  0  0  0  0  0  0  0  0  0
   23.9811   10.3316   30.8809 H   0  0  0  0  0  0  0  0  0  0  0  0
   22.5544    8.8849   30.7066 H   0  0  0  0  0  0  0  0  0  0  0  0
   19.2892    7.2862   32.7840 H   0  0  0  0  0  0  0  0  0  0  0  0
   18.2177   10.4529   33.9431 H   0  0  0  0  0  0  0  0  0  0  0  0
   17.5962    9.1461   33.1864 H   0  0  0  0  0  0  0  0  0  0  0  0
   21.0667    3.6092   30.3162 H   0  0  0  0  0  0  0  0  0  0  0  0
   21.7517    4.8684   29.2337 H   0  0  0  0  0  0  0  0  0  0  0  0
   24.4769    7.9778   28.8391 H   0  0  0  0  0  0  0  0  0  0  0  0
   25.1064    7.6502   30.4892 H   0  0  0  0  0  0  0  0  0  0  0  0
   25.7522    6.7368   29.0837 H   0  0  0  0  0  0  0  0  0  0  0  0
   26.0313    4.6517   30.1824 H   0  0  0  0  0  0  0  0  0  0  0  0
   25.7041    5.7195   31.5894 H   0  0  0  0  0  0  0  0  0  0  0  0
   22.3768    2.5680   31.9624 H   0  0  0  0  0  0  0  0  0  0  0  0
   24.1278    0.0422   33.9145 H   0  0  0  0  0  0  0  0  0  0  0  0
   22.7922    1.1413   33.4301 H   0  0  0  0  0  0  0  0  0  0  0  0
   23.7622    0.2989   32.1747 H   0  0  0  0  0  0  0  0  0  0  0  0
   30.0677    3.9238   33.0552 H   0  0  0  0  0  0  0  0  0  0  0  0
   28.8447    3.5020   34.3013 H   0  0  0  0  0  0  0  0  0  0  0  0
   29.2620    2.3190   33.0156 H   0  0  0  0  0  0  0  0  0  0  0  0
  1  2  1  0  0  0  0
  2  3  1  0  0  0  0
  3  4  1  0  0  0  0
  4 10  2  0  0  0  0
  4  5  1  0  0  0  0
  5  6  1  0  0  0  0
  6  7  1  0  0  0  0
  6 13  2  0  0  0  0
  7  8  2  0  0  0  0
  8  9  1  0  0  0  0
  8 10  1  0  0  0  0
 10 11  1  0  0  0  0
 11 12  3  0  0  0  0
 13 14  1  0  0  0  0
 14 15  2  0  0  0  0
 14 16  1  0  0  0  0
 16 17  1  0  0  0  0
 17 24  1  0  0  0  0
 17 18  2  0  0  0  0
 18 19  1  0  0  0  0
 18 21  1  0  0  0  0
 19 20  1  0  0  0  0
 21 22  1  0  0  0  0
 22 23  1  0  0  0  0
 22 27  2  0  0  0  0
 23 24  2  0  0  0  0
 23 25  1  0  0  0  0
 25 26  1  0  0  0  0
 27 28  1  0  0  0  0
 28 29  2  0  0  0  0
 28 30  1  0  0  0  0
  1 31  1  0  0  0  0
  1 32  1  0  0  0  0
  1 33  1  0  0  0  0
  2 34  1  0  0  0  0
  2 35  1  0  0  0  0
  5 36  1  0  0  0  0
  7 37  1  0  0  0  0
  9 38  1  0  0  0  0
  9 39  1  0  0  0  0
 16 40  1  0  0  0  0
 16 41  1  0  0  0  0
 20 42  1  0  0  0  0
 20 43  1  0  0  0  0
 20 44  1  0  0  0  0
 21 45  1  0  0  0  0
 21 46  1  0  0  0  0
 24 47  1  0  0  0  0
 26 48  1  0  0  0  0
 26 49  1  0  0  0  0
 26 50  1  0  0  0  0
 30 51  1  0  0  0  0
 30 52  1  0  0  0  0
 30 53  1  0  0  0  0
M  END
> <i_m_stars>
0

> <r_user_dG.exp>
-10.141692

$$$$
18637-1
  -OEChem-05192314073D
 Structure written by MMmdl.
 53 54  0     1  0  0  0  0  0999 V2000
   24.0679   12.3974   30.2299 C   0  0  0  0  0  0  0  0  0  0  0  0
   23.3159   11.0783   30.4227 C   0  0  0  0  0  0  0  0  0  0  0  0
   22.2074   11.3318   31.2810 O   0  0  0  0  0  0  0  0  0  0  0  0
   21.4078   10.2815   31.6977 C   0  0  0  0  0  0  0  0  0  0  0  0
   21.7477    9.0318   31.2791 N   0  0  0  0  0  0  0  0  0  0  0  0
   20.9736    8.0017   31.6536 C   0  0  0  0  0  0  0  0  0  0  0  0
   19.8665    8.1461   32.4779 C   0  0  0  0  0  0  0  0  0  0  0  0
   19.5200    9.4177   32.8981 C   0  0  0  0  0  0  0  0  0  0  0  0
   18.3829    9.4988   33.6931 N   0  0  0  0  0  0  0  0  0  0  0  0
   20.2909   10.5235   32.5051 C   0  0  0  0  0  0  0  0  0  0  0  0
   19.9670   11.8935   32.8853 C   0  0  0  0  0  0  0  0  0  0  0  0
   19.7174   12.9843   33.1812 N   0  0  0  0  0  0  0  0  0  0  0  0
   21.4331    6.8194   31.1098 N   0  0  0  0  0  0  0  0  0  0  0  0
   20.8527    5.6189   31.0281 C   0  0  0  0  0  0  0  0  0  0  0  0
   19.7272    5.3573   31.4476 O   0  0  0  0  0  0  0  0  0  0  0  0
   21.6390    4.5479   30.2799 C   0  0  0  0  0  0  0  0  0  0  0  0
   23.0290    4.2861   30.8549 C   0  0  3  0  0  0  0  0  0  0  0  0
   24.1071    5.1197   30.5266 C   0  0  0  0  0  0  0  0  0  0  0  0
   23.8494    6.2028   29.7043 O   0  0  0  0  0  0  0  0  0  0  0  0
   24.8536    7.1989   29.5184 C   0  0  0  0  0  0  0  0  0  0  0  0
   25.3718    4.8226   31.0461 C   0  0  0  0  0  0  0  0  0  0  0  0
   25.5645    3.7381   31.9139 C   0  0  0  0  0  0  0  0  0  0  0  0
   24.4775    2.9179   32.2550 C   0  0  0  0  0  0  0  0  0  0  0  0
   23.2164    3.1999   31.7130 C   0  0  0  0  0  0  0  0  0  0  0  0
   24.7079    1.8722   33.1347 O   0  0  0  0  0  0  0  0  0  0  0  0
   23.7954    0.7759   33.1653 C   0  0  0  0  0  0  0  0  0  0  0  0
   26.8105    3.4129   32.4986 N   0  0  0  0  0  0  0  0  0  0  0  0
   28.0304    3.9580   32.3626 C   0  0  0  0  0  0  0  0  0  0  0  0
   28.3090    4.8809   31.6038 O   0  0  0  0  0  0  0  0  0  0  0  0
   29.1268    3.3864   33.2444 C   0  0  0  0  0  0  0  0  0  0  0  0
   24.9324   12.2341   29.5696 H   0  0  0  0  0  0  0  0  0  0  0  0
   23.3951   13.1399   29.7761 H   0  0  0  0  0  0  0  0  0  0  0  0
   24.4166   12.7665   31.2057 H   0  0  0  0  0  0  0  0  0  0  0  0
   22.9596   10.7050   29.4513 H   0  0  0  0  0  0  0  0  0  0  0  0
   23.9811   10.3316   30.8809 H   0  0  0  0  0  0  0  0  0  0  0  0
   22.5544    8.8849   30.7066 H   0  0  0  0  0  0  0  0  0  0  0  0
   19.2892    7.2862   32.7840 H   0  0  0  0  0  0  0  0  0  0  0  0
   18.1753   10.4413   33.9549 H   0  0  0  0  0  0  0  0  0  0  0  0
   19.5301    4.4435   31.2783 H   0  0  0  0  0  0  0  0  0  0  0  0
   21.0667    3.6092   30.3162 H   0  0  0  0  0  0  0  0  0  0  0  0
   21.7517    4.8684   29.2337 H   0  0  0  0  0  0  0  0  0  0  0  0
   22.7942    4.9278   31.7169 H   0  0  0  0  0  0  0  0  0  0  0  0
   24.4769    7.9778   28.8391 H   0  0  0  0  0  0  0  0  0  0  0  0
   25.1064    7.6502   30.4892 H   0  0  0  0  0  0  0  0  0  0  0  0
   25.7522    6.7368   29.0837 H   0  0  0  0  0  0  0  0  0  0  0  0
   26.2151    5.4399   30.7737 H   0  0  0  0  0  0  0  0  0  0  0  0
   22.3768    2.5680   31.9624 H   0  0  0  0  0  0  0  0  0  0  0  0
   24.1278    0.0422   33.9145 H   0  0  0  0  0  0  0  0  0  0  0  0
   22.7922    1.1413   33.4301 H   0  0  0  0  0  0  0  0  0  0  0  0
   23.7622    0.2989   32.1747 H   0  0  0  0  0  0  0  0  0  0  0  0
   30.0677    3.9238   33.0552 H   0  0  0  0  0  0  0  0  0  0  0  0
   28.8447    3.5020   34.3013 H   0  0  0  0  0  0  0  0  0  0  0  0
   29.2620    2.3190   33.0156 H   0  0  0  0  0  0  0  0  0  0  0  0
  1  2  1  0  0  0  0
  2  3  1  0  0  0  0
  3  4  1  0  0  0  0
  4 10  2  0  0  0  0
  4  5  1  0  0  0  0
  5  6  1  0  0  0  0
  6  7  2  0  0  0  0
  6 13  1  0  0  0  0
  7  8  1  0  0  0  0
  8  9  2  0  0  0  0
  8 10  1  0  0  0  0
 10 11  1  0  0  0  0
 11 12  3  0  0  0  0
 13 14  2  0  0  0  0
 14 15  1  0  0  0  0
 14 16  1  0  0  0  0
 16 17  1  0  0  0  0
 17 24  1  0  0  0  0
 17 18  1  0  0  0  0
 18 19  1  0  0  0  0
 18 21  2  0  0  0  0
 19 20  1  0  0  0  0
 21 22  1  0  0  0  0
 22 23  1  0  0  0  0
 22 27  2  0  0  0  0
 23 24  2  0  0  0  0
 23 25  1  0  0  0  0
 25 26  1  0  0  0  0
 27 28  1  0  0  0  0
 28 29  2  0  0  0  0
 28 30  1  0  0  0  0
  1 31  1  0  0  0  0
  1 32  1  0  0  0  0
  1 33  1  0  0  0  0
  2 34  1  0  0  0  0
  2 35  1  0  0  0  0
  5 36  1  0  0  0  0
  7 37  1  0  0  0  0
  9 38  1  0  0  0  0
 15 39  1  0  0  0  0
 16 40  1  0  0  0  0
 16 41  1  0  0  0  0
 17 42  1  0  0  0  0
 20 43  1  0  0  0  0
 20 44  1  0  0  0  0
 20 45  1  0  0  0  0
 21 46  1  0  0  0  0
 24 47  1  0  0  0  0
 26 48  1  0  0  0  0
 26 49  1  0  0  0  0
 26 50  1  0  0  0  0
 30 51  1  0  0  0  0
 30 52  1  0  0  0  0
 30 53  1  0  0  0  0
M  END
> <i_m_stars>
0

> <r_user_dG.exp>
-10.141692

$$$$
18637-1
  -OEChem-05192314073D
 Structure written by MMmdl.
 53 54  0     1  0  0  0  0  0999 V2000
   24.0679   12.3974   30.2299 C   0  0  0  0  0  0  0  0  0  0  0  0
   23.3159   11.0783   30.4227 C   0  0  0  0  0  0  0  0  0  0  0  0
   22.2074   11.3318   31.2810 O   0  0  0  0  0  0  0  0  0  0  0  0
   21.4078   10.2815   31.6977 C   0  0  0  0  0  0  0  0  0  0  0  0
   21.7477    9.0318   31.2791 N   0  0  0  0  0  0  0  0  0  0  0  0
   20.9736    8.0017   31.6536 C   0  0  0  0  0  0  0  0  0  0  0  0
   19.8665    8.1461   32.4779 C   0  0  0  0  0  0  0  0  0  0  0  0
   19.5200    9.4177   32.8981 C   0  0  0  0  0  0  0  0  0  0  0  0
   18.3829    9.4988   33.6931 N   0  0  0  0  0  0  0  0  0  0  0  0
   20.2909   10.5235   32.5051 C   0  0  0  0  0  0  0  0  0  0  0  0
   19.9670   11.8935   32.8853 C   0  0  0  0  0  0  0  0  0  0  0  0
   19.7174   12.9843   33.1812 N   0  0  0  0  0  0  0  0  0  0  0  0
   21.4331    6.8194   31.1098 N   0  0  0  0  0  0  0  0  0  0  0  0
   20.8527    5.6189   31.0281 C   0  0  0  0  0  0  0  0  0  0  0  0
   19.7272    5.3573   31.4476 O   0  0  0  0  0  0  0  0  0  0  0  0
   21.6390    4.5479   30.2799 C   0  0  0  0  0  0  0  0  0  0  0  0
   23.0290    4.2861   30.8549 C   0  0  0  0  0  0  0  0  0  0  0  0
   24.1071    5.1197   30.5266 C   0  0  0  0  0  0  0  0  0  0  0  0
   23.8494    6.2028   29.7043 O   0  0  0  0  0  0  0  0  0  0  0  0
   24.8536    7.1989   29.5184 C   0  0  0  0  0  0  0  0  0  0  0  0
   25.3718    4.8226   31.0461 C   0  0  0  0  0  0  0  0  0  0  0  0
   25.5645    3.7381   31.9139 C   0  0  0  0  0  0  0  0  0  0  0  0
   24.4775    2.9179   32.2550 C   0  0  3  0  0  0  0  0  0  0  0  0
   23.2164    3.1999   31.7130 C   0  0  0  0  0  0  0  0  0  0  0  0
   24.7079    1.8722   33.1347 O   0  0  0  0  0  0  0  0  0  0  0  0
   23.7954    0.7759   33.1653 C   0  0  0  0  0  0  0  0  0  0  0  0
   26.8105    3.4129   32.4986 N   0  0  0  0  0  0  0  0  0  0  0  0
   28.0304    3.9580   32.3626 C   0  0  0  0  0  0  0  0  0  0  0  0
   28.3090    4.8809   31.6038 O   0  0  0  0  0  0  0  0  0  0  0  0
   29.1268    3.3864   33.2444 C   0  0  0  0  0  0  0  0  0  0  0  0
   24.9324   12.2341   29.5696 H   0  0  0  0  0  0  0  0  0  0  0  0
   23.3951   13.1399   29.7761 H   0  0  0  0  0  0  0  0  0  0  0  0
   24.4166   12.7665   31.2057 H   0  0  0  0  0  0  0  0  0  0  0  0
   22.9596   10.7050   29.4513 H   0  0  0  0  0  0  0  0  0  0  0  0
   23.9811   10.3316   30.8809 H   0  0  0  0  0  0  0  0  0  0  0  0
   22.5544    8.8849   30.7066 H   0  0  0  0  0  0  0  0  0  0  0  0
   19.2892    7.2862   32.7840 H   0  0  0  0  0  0  0  0  0  0  0  0
   18.1753   10.4413   33.9549 H   0  0  0  0  0  0  0  0  0  0  0  0
   19.5301    4.4435   31.2783 H   0  0  0  0  0  0  0  0  0  0  0  0
   21.0667    3.6092   30.3162 H   0  0  0  0  0  0  0  0  0  0  0  0
   21.7517    4.8684   29.2337 H   0  0  0  0  0  0  0  0  0  0  0  0
   24.4769    7.9778   28.8391 H   0  0  0  0  0  0  0  0  0  0  0  0
   25.1064    7.6502   30.4892 H   0  0  0  0  0  0  0  0  0  0  0  0
   25.7522    6.7368   29.0837 H   0  0  0  0  0  0  0  0  0  0  0  0
   26.2151    5.4399   30.7737 H   0  0  0  0  0  0  0  0  0  0  0  0
   24.7015    2.2581   31.4038 H   0  0  0  0  0  0  0  0  0  0  0  0
   22.3768    2.5680   31.9624 H   0  0  0  0  0  0  0  0  0  0  0  0
   24.1278    0.0422   33.9145 H   0  0  0  0  0  0  0  0  0  0  0  0
   22.7922    1.1413   33.4301 H   0  0  0  0  0  0  0  0  0  0  0  0
   23.7622    0.2989   32.1747 H   0  0  0  0  0  0  0  0  0  0  0  0
   30.0677    3.9238   33.0552 H   0  0  0  0  0  0  0  0  0  0  0  0
   28.8447    3.5020   34.3013 H   0  0  0  0  0  0  0  0  0  0  0  0
   29.2620    2.3190   33.0156 H   0  0  0  0  0  0  0  0  0  0  0  0
  1  2  1  0  0  0  0
  2  3  1  0  0  0  0
  3  4  1  0  0  0  0
  4 10  2  0  0  0  0
  4  5  1  0  0  0  0
  5  6  1  0  0  0  0
  6  7  2  0  0  0  0
  6 13  1  0  0  0  0
  7  8  1  0  0  0  0
  8  9  2  0  0  0  0
  8 10  1  0  0  0  0
 10 11  1  0  0  0  0
 11 12  3  0  0  0  0
 13 14  2  0  0  0  0
 14 15  1  0  0  0  0
 14 16  1  0  0  0  0
 16 17  1  0  0  0  0
 17 24  2  0  0  0  0
 17 18  1  0  0  0  0
 18 19  1  0  0  0  0
 18 21  2  0  0  0  0
 19 20  1  0  0  0  0
 21 22  1  0  0  0  0
 22 23  1  0  0  0  0
 22 27  2  0  0  0  0
 23 24  1  0  0  0  0
 23 25  1  0  0  0  0
 25 26  1  0  0  0  0
 27 28  1  0  0  0  0
 28 29  2  0  0  0  0
 28 30  1  0  0  0  0
  1 31  1  0  0  0  0
  1 32  1  0  0  0  0
  1 33  1  0  0  0  0
  2 34  1  0  0  0  0
  2 35  1  0  0  0  0
  5 36  1  0  0  0  0
  7 37  1  0  0  0  0
  9 38  1  0  0  0  0
 15 39  1  0  0  0  0
 16 40  1  0  0  0  0
 16 41  1  0  0  0  0
 20 42  1  0  0  0  0
 20 43  1  0  0  0  0
 20 44  1  0  0  0  0
 21 45  1  0  0  0  0
 23 46  1  0  0  0  0
 24 47  1  0  0  0  0
 26 48  1  0  0  0  0
 26 49  1  0  0  0  0
 26 50  1  0  0  0  0
 30 51  1  0  0  0  0
 30 52  1  0  0  0  0
 30 53  1  0  0  0  0
M  END
> <i_m_stars>
0

> <r_user_dG.exp>
-10.141692

$$$$
18637-1
  -OEChem-05192314073D
 Structure written by MMmdl.
 53 54  0     0  0  0  0  0  0999 V2000
   24.0679   12.3974   30.2299 C   0  0  0  0  0  0  0  0  0  0  0  0
   23.3159   11.0783   30.4227 C   0  0  0  0  0  0  0  0  0  0  0  0
   22.2074   11.3318   31.2810 O   0  0  0  0  0  0  0  0  0  0  0  0
   21.4078   10.2815   31.6977 C   0  0  0  0  0  0  0  0  0  0  0  0
   21.7477    9.0318   31.2791 N   0  0  0  0  0  0  0  0  0  0  0  0
   20.9736    8.0017   31.6536 C   0  0  0  0  0  0  0  0  0  0  0  0
   19.8665    8.1461   32.4779 C   0  0  0  0  0  0  0  0  0  0  0  0
   19.5200    9.4177   32.8981 C   0  0  0  0  0  0  0  0  0  0  0  0
   18.3829    9.4988   33.6931 N   0  0  0  0  0  0  0  0  0  0  0  0
   20.2909   10.5235   32.5051 C   0  0  0  0  0  0  0  0  0  0  0  0
   19.9670   11.8935   32.8853 C   0  0  0  0  0  0  0  0  0  0  0  0
   19.7174   12.9843   33.1812 N   0  0  0  0  0  0  0  0  0  0  0  0
   21.4331    6.8194   31.1098 N   0  0  0  0  0  0  0  0  0  0  0  0
   20.8527    5.6189   31.0281 C   0  0  0  0  0  0  0  0  0  0  0  0
   19.7272    5.3573   31.4476 O   0  0  0  0  0  0  0  0  0  0  0  0
   21.6390    4.5479   30.2799 C   0  0  0  0  0  0  0  0  0  0  0  0
   23.0290    4.2861   30.8549 C   0  0  0  0  0  0  0  0  0  0  0  0
   24.1071    5.1197   30.5266 C   0  0  0  0  0  0  0  0  0  0  0  0
   23.8494    6.2028   29.7043 O   0  0  0  0  0  0  0  0  0  0  0  0
   24.8536    7.1989   29.5184 C   0  0  0  0  0  0  0  0  0  0  0  0
   25.3718    4.8226   31.0461 C   0  0  0  0  0  0  0  0  0  0  0  0
   25.5645    3.7381   31.9139 C   0  0  0  0  0  0  0  0  0  0  0  0
   24.4775    2.9179   32.2550 C   0  0  0  0  0  0  0  0  0  0  0  0
   23.2164    3.1999   31.7130 C   0  0  0  0  0  0  0  0  0  0  0  0
   24.7079    1.8722   33.1347 O   0  0  0  0  0  0  0  0  0  0  0  0
   23.7954    0.7759   33.1653 C   0  0  0  0  0  0  0  0  0  0  0  0
   26.8105    3.4129   32.4986 N   0  0  0  0  0  0  0  0  0  0  0  0
   28.0304    3.9580   32.3626 C   0  0  0  0  0  0  0  0  0  0  0  0
   28.3090    4.8809   31.6038 O   0  0  0  0  0  0  0  0  0  0  0  0
   29.1268    3.3864   33.2444 C   0  0  0  0  0  0  0  0  0  0  0  0
   24.9324   12.2341   29.5696 H   0  0  0  0  0  0  0  0  0  0  0  0
   23.3951   13.1399   29.7761 H   0  0  0  0  0  0  0  0  0  0  0  0
   24.4166   12.7665   31.2057 H   0  0  0  0  0  0  0  0  0  0  0  0
   22.9596   10.7050   29.4513 H   0  0  0  0  0  0  0  0  0  0  0  0
   23.9811   10.3316   30.8809 H   0  0  0  0  0  0  0  0  0  0  0  0
   22.5544    8.8849   30.7066 H   0  0  0  0  0  0  0  0  0  0  0  0
   19.2892    7.2862   32.7840 H   0  0  0  0  0  0  0  0  0  0  0  0
   18.1753   10.4413   33.9549 H   0  0  0  0  0  0  0  0  0  0  0  0
   19.5301    4.4435   31.2783 H   0  0  0  0  0  0  0  0  0  0  0  0
   21.0667    3.6092   30.3162 H   0  0  0  0  0  0  0  0  0  0  0  0
   21.7517    4.8684   29.2337 H   0  0  0  0  0  0  0  0  0  0  0  0
   24.4769    7.9778   28.8391 H   0  0  0  0  0  0  0  0  0  0  0  0
   25.1064    7.6502   30.4892 H   0  0  0  0  0  0  0  0  0  0  0  0
   25.7522    6.7368   29.0837 H   0  0  0  0  0  0  0  0  0  0  0  0
   26.0313    4.6517   30.1824 H   0  0  0  0  0  0  0  0  0  0  0  0
   25.7041    5.7195   31.5894 H   0  0  0  0  0  0  0  0  0  0  0  0
   22.3768    2.5680   31.9624 H   0  0  0  0  0  0  0  0  0  0  0  0
   24.1278    0.0422   33.9145 H   0  0  0  0  0  0  0  0  0  0  0  0
   22.7922    1.1413   33.4301 H   0  0  0  0  0  0  0  0  0  0  0  0
   23.7622    0.2989   32.1747 H   0  0  0  0  0  0  0  0  0  0  0  0
   30.0677    3.9238   33.0552 H   0  0  0  0  0  0  0  0  0  0  0  0
   28.8447    3.5020   34.3013 H   0  0  0  0  0  0  0  0  0  0  0  0
   29.2620    2.3190   33.0156 H   0  0  0  0  0  0  0  0  0  0  0  0
  1  2  1  0  0  0  0
  2  3  1  0  0  0  0
  3  4  1  0  0  0  0
  4 10  2  0  0  0  0
  4  5  1  0  0  0  0
  5  6  1  0  0  0  0
  6  7  2  0  0  0  0
  6 13  1  0  0  0  0
  7  8  1  0  0  0  0
  8  9  2  0  0  0  0
  8 10  1  0  0  0  0
 10 11  1  0  0  0  0
 11 12  3  0  0  0  0
 13 14  2  0  0  0  0
 14 15  1  0  0  0  0
 14 16  1  0  0  0  0
 16 17  1  0  0  0  0
 17 24  1  0  0  0  0
 17 18  2  0  0  0  0
 18 19  1  0  0  0  0
 18 21  1  0  0  0  0
 19 20  1  0  0  0  0
 21 22  1  0  0  0  0
 22 23  1  0  0  0  0
 22 27  2  0  0  0  0
 23 24  2  0  0  0  0
 23 25  1  0  0  0  0
 25 26  1  0  0  0  0
 27 28  1  0  0  0  0
 28 29  2  0  0  0  0
 28 30  1  0  0  0  0
  1 31  1  0  0  0  0
  1 32  1  0  0  0  0
  1 33  1  0  0  0  0
  2 34  1  0  0  0  0
  2 35  1  0  0  0  0
  5 36  1  0  0  0  0
  7 37  1  0  0  0  0
  9 38  1  0  0  0  0
 15 39  1  0  0  0  0
 16 40  1  0  0  0  0
 16 41  1  0  0  0  0
 20 42  1  0  0  0  0
 20 43  1  0  0  0  0
 20 44  1  0  0  0  0
 21 45  1  0  0  0  0
 21 46  1  0  0  0  0
 24 47  1  0  0  0  0
 26 48  1  0  0  0  0
 26 49  1  0  0  0  0
 26 50  1  0  0  0  0
 30 51  1  0  0  0  0
 30 52  1  0  0  0  0
 30 53  1  0  0  0  0
M  END
> <i_m_stars>
0

> <r_user_dG.exp>
-10.141692

$$$$
18637-1
  -OEChem-05192314073D
 Structure written by MMmdl.
 53 54  0     1  0  0  0  0  0999 V2000
   24.0679   12.3974   30.2299 C   0  0  0  0  0  0  0  0  0  0  0  0
   23.3159   11.0783   30.4227 C   0  0  0  0  0  0  0  0  0  0  0  0
   22.2074   11.3318   31.2810 O   0  0  0  0  0  0  0  0  0  0  0  0
   21.4078   10.2815   31.6977 C   0  0  0  0  0  0  0  0  0  0  0  0
   21.7477    9.0318   31.2791 N   0  0  0  0  0  0  0  0  0  0  0  0
   20.9736    8.0017   31.6536 C   0  0  0  0  0  0  0  0  0  0  0  0
   19.8665    8.1461   32.4779 C   0  0  0  0  0  0  0  0  0  0  0  0
   19.5200    9.4177   32.8981 C   0  0  0  0  0  0  0  0  0  0  0  0
   18.3829    9.4988   33.6931 N   0  0  0  0  0  0  0  0  0  0  0  0
   20.2909   10.5235   32.5051 C   0  0  3  0  0  0  0  0  0  0  0  0
   19.9670   11.8935   32.8853 C   0  0  0  0  0  0  0  0  0  0  0  0
   19.7174   12.9843   33.1812 N   0  0  0  0  0  0  0  0  0  0  0  0
   21.4331    6.8194   31.1098 N   0  0  0  0  0  0  0  0  0  0  0  0
   20.8527    5.6189   31.0281 C   0  0  0  0  0  0  0  0  0  0  0  0
   19.7272    5.3573   31.4476 O   0  0  0  0  0  0  0  0  0  0  0  0
   21.6390    4.5479   30.2799 C   0  0  0  0  0  0  0  0  0  0  0  0
   23.0290    4.2861   30.8549 C   0  0  3  0  0  0  0  0  0  0  0  0
   24.1071    5.1197   30.5266 C   0  0  0  0  0  0  0  0  0  0  0  0
   23.8494    6.2028   29.7043 O   0  0  0  0  0  0  0  0  0  0  0  0
   24.8536    7.1989   29.5184 C   0  0  0  0  0  0  0  0  0  0  0  0
   25.3718    4.8226   31.0461 C   0  0  0  0  0  0  0  0  0  0  0  0
   25.5645    3.7381   31.9139 C   0  0  0  0  0  0  0  0  0  0  0  0
   24.4775    2.9179   32.2550 C   0  0  0  0  0  0  0  0  0  0  0  0
   23.2164    3.1999   31.7130 C   0  0  0  0  0  0  0  0  0  0  0  0
   24.7079    1.8722   33.1347 O   0  0  0  0  0  0  0  0  0  0  0  0
   23.7954    0.7759   33.1653 C   0  0  0  0  0  0  0  0  0  0  0  0
   26.8105    3.4129   32.4986 N   0  0  0  0  0  0  0  0  0  0  0  0
   28.0304    3.9580   32.3626 C   0  0  0  0  0  0  0  0  0  0  0  0
   28.3090    4.8809   31.6038 O   0  0  0  0  0  0  0  0  0  0  0  0
   29.1268    3.3864   33.2444 C   0  0  0  0  0  0  0  0  0  0  0  0
   24.9324   12.2341   29.5696 H   0  0  0  0  0  0  0  0  0  0  0  0
   23.3951   13.1399   29.7761 H   0  0  0  0  0  0  0  0  0  0  0  0
   24.4166   12.7665   31.2057 H   0  0  0  0  0  0  0  0  0  0  0  0
   22.9596   10.7050   29.4513 H   0  0  0  0  0  0  0  0  0  0  0  0
   23.9811   10.3316   30.8809 H   0  0  0  0  0  0  0  0  0  0  0  0
   19.0018    7.7360   31.9357 H   0  0  0  0  0  0  0  0  0  0  0  0
   20.0523    7.5449   33.3801 H   0  0  0  0  0  0  0  0  0  0  0  0
   18.1753   10.4413   33.9549 H   0  0  0  0  0  0  0  0  0  0  0  0
   20.9130   10.4158   33.4059 H   0  0  0  0  0  0  0  0  0  0  0  0
   21.0667    3.6092   30.3162 H   0  0  0  0  0  0  0  0  0  0  0  0
   21.7517    4.8684   29.2337 H   0  0  0  0  0  0  0  0  0  0  0  0
   22.7942    4.9278   31.7169 H   0  0  0  0  0  0  0  0  0  0  0  0
   24.4769    7.9778   28.8391 H   0  0  0  0  0  0  0  0  0  0  0  0
   25.1064    7.6502   30.4892 H   0  0  0  0  0  0  0  0  0  0  0  0
   25.7522    6.7368   29.0837 H   0  0  0  0  0  0  0  0  0  0  0  0
   26.2151    5.4399   30.7737 H   0  0  0  0  0  0  0  0  0  0  0  0
   22.3768    2.5680   31.9624 H   0  0  0  0  0  0  0  0  0  0  0  0
   24.1278    0.0422   33.9145 H   0  0  0  0  0  0  0  0  0  0  0  0
   22.7922    1.1413   33.4301 H   0  0  0  0  0  0  0  0  0  0  0  0
   23.7622    0.2989   32.1747 H   0  0  0  0  0  0  0  0  0  0  0  0
   30.0677    3.9238   33.0552 H   0  0  0  0  0  0  0  0  0  0  0  0
   28.8447    3.5020   34.3013 H   0  0  0  0  0  0  0  0  0  0  0  0
   29.2620    2.3190   33.0156 H   0  0  0  0  0  0  0  0  0  0  0  0
  1  2  1  0  0  0  0
  2  3  1  0  0  0  0
  3  4  1  0  0  0  0
  4 10  1  0  0  0  0
  4  5  2  0  0  0  0
  5  6  1  0  0  0  0
  6  7  1  0  0  0  0
  6 13  2  0  0  0  0
  7  8  1  0  0  0  0
  8  9  2  0  0  0  0
  8 10  1  0  0  0  0
 10 11  1  0  0  0  0
 11 12  3  0  0  0  0
 13 14  1  0  0  0  0
 14 15  2  0  0  0  0
 14 16  1  0  0  0  0
 16 17  1  0  0  0  0
 17 24  1  0  0  0  0
 17 18  1  0  0  0  0
 18 19  1  0  0  0  0
 18 21  2  0  0  0  0
 19 20  1  0  0  0  0
 21 22  1  0  0  0  0
 22 23  1  0  0  0  0
 22 27  2  0  0  0  0
 23 24  2  0  0  0  0
 23 25  1  0  0  0  0
 25 26  1  0  0  0  0
 27 28  1  0  0  0  0
 28 29  2  0  0  0  0
 28 30  1  0  0  0  0
  1 31  1  0  0  0  0
  1 32  1  0  0  0  0
  1 33  1  0  0  0  0
  2 34  1  0  0  0  0
  2 35  1  0  0  0  0
  7 36  1  0  0  0  0
  7 37  1  0  0  0  0
  9 38  1  0  0  0  0
 10 39  1  0  0  0  0
 16 40  1  0  0  0  0
 16 41  1  0  0  0  0
 17 42  1  0  0  0  0
 20 43  1  0  0  0  0
 20 44  1  0  0  0  0
 20 45  1  0  0  0  0
 21 46  1  0  0  0  0
 24 47  1  0  0  0  0
 26 48  1  0  0  0  0
 26 49  1  0  0  0  0
 26 50  1  0  0  0  0
 30 51  1  0  0  0  0
 30 52  1  0  0  0  0
 30 53  1  0  0  0  0
M  END
> <i_m_stars>
0

> <r_user_dG.exp>
-10.141692

$$$$
18637-1
  -OEChem-05192314073D
 Structure written by MMmdl.
 53 54  0     1  0  0  0  0  0999 V2000
   24.0679   12.3974   30.2299 C   0  0  0  0  0  0  0  0  0  0  0  0
   23.3159   11.0783   30.4227 C   0  0  0  0  0  0  0  0  0  0  0  0
   22.2074   11.3318   31.2810 O   0  0  0  0  0  0  0  0  0  0  0  0
   21.4078   10.2815   31.6977 C   0  0  0  0  0  0  0  0  0  0  0  0
   21.7477    9.0318   31.2791 N   0  0  0  0  0  0  0  0  0  0  0  0
   20.9736    8.0017   31.6536 C   0  0  0  0  0  0  0  0  0  0  0  0
   19.8665    8.1461   32.4779 C   0  0  0  0  0  0  0  0  0  0  0  0
   19.5200    9.4177   32.8981 C   0  0  0  0  0  0  0  0  0  0  0  0
   18.3829    9.4988   33.6931 N   0  0  0  0  0  0  0  0  0  0  0  0
   20.2909   10.5235   32.5051 C   0  0  3  0  0  0  0  0  0  0  0  0
   19.9670   11.8935   32.8853 C   0  0  0  0  0  0  0  0  0  0  0  0
   19.7174   12.9843   33.1812 N   0  0  0  0  0  0  0  0  0  0  0  0
   21.4331    6.8194   31.1098 N   0  0  0  0  0  0  0  0  0  0  0  0
   20.8527    5.6189   31.0281 C   0  0  0  0  0  0  0  0  0  0  0  0
   19.7272    5.3573   31.4476 O   0  0  0  0  0  0  0  0  0  0  0  0
   21.6390    4.5479   30.2799 C   0  0  0  0  0  0  0  0  0  0  0  0
   23.0290    4.2861   30.8549 C   0  0  0  0  0  0  0  0  0  0  0  0
   24.1071    5.1197   30.5266 C   0  0  0  0  0  0  0  0  0  0  0  0
   23.8494    6.2028   29.7043 O   0  0  0  0  0  0  0  0  0  0  0  0
   24.8536    7.1989   29.5184 C   0  0  0  0  0  0  0  0  0  0  0  0
   25.3718    4.8226   31.0461 C   0  0  0  0  0  0  0  0  0  0  0  0
   25.5645    3.7381   31.9139 C   0  0  0  0  0  0  0  0  0  0  0  0
   24.4775    2.9179   32.2550 C   0  0  3  0  0  0  0  0  0  0  0  0
   23.2164    3.1999   31.7130 C   0  0  0  0  0  0  0  0  0  0  0  0
   24.7079    1.8722   33.1347 O   0  0  0  0  0  0  0  0  0  0  0  0
   23.7954    0.7759   33.1653 C   0  0  0  0  0  0  0  0  0  0  0  0
   26.8105    3.4129   32.4986 N   0  0  0  0  0  0  0  0  0  0  0  0
   28.0304    3.9580   32.3626 C   0  0  0  0  0  0  0  0  0  0  0  0
   28.3090    4.8809   31.6038 O   0  0  0  0  0  0  0  0  0  0  0  0
   29.1268    3.3864   33.2444 C   0  0  0  0  0  0  0  0  0  0  0  0
   24.9324   12.2341   29.5696 H   0  0  0  0  0  0  0  0  0  0  0  0
   23.3951   13.1399   29.7761 H   0  0  0  0  0  0  0  0  0  0  0  0
   24.4166   12.7665   31.2057 H   0  0  0  0  0  0  0  0  0  0  0  0
   22.9596   10.7050   29.4513 H   0  0  0  0  0  0  0  0  0  0  0  0
   23.9811   10.3316   30.8809 H   0  0  0  0  0  0  0  0  0  0  0  0
   19.0018    7.7360   31.9357 H   0  0  0  0  0  0  0  0  0  0  0  0
   20.0523    7.5449   33.3801 H   0  0  0  0  0  0  0  0  0  0  0  0
   18.1753   10.4413   33.9549 H   0  0  0  0  0  0  0  0  0  0  0  0
   20.9130   10.4158   33.4059 H   0  0  0  0  0  0  0  0  0  0  0  0
   21.0667    3.6092   30.3162 H   0  0  0  0  0  0  0  0  0  0  0  0
   21.7517    4.8684   29.2337 H   0  0  0  0  0  0  0  0  0  0  0  0
   24.4769    7.9778   28.8391 H   0  0  0  0  0  0  0  0  0  0  0  0
   25.1064    7.6502   30.4892 H   0  0  0  0  0  0  0  0  0  0  0  0
   25.7522    6.7368   29.0837 H   0  0  0  0  0  0  0  0  0  0  0  0
   26.2151    5.4399   30.7737 H   0  0  0  0  0  0  0  0  0  0  0  0
   24.7015    2.2581   31.4038 H   0  0  0  0  0  0  0  0  0  0  0  0
   22.3768    2.5680   31.9624 H   0  0  0  0  0  0  0  0  0  0  0  0
   24.1278    0.0422   33.9145 H   0  0  0  0  0  0  0  0  0  0  0  0
   22.7922    1.1413   33.4301 H   0  0  0  0  0  0  0  0  0  0  0  0
   23.7622    0.2989   32.1747 H   0  0  0  0  0  0  0  0  0  0  0  0
   30.0677    3.9238   33.0552 H   0  0  0  0  0  0  0  0  0  0  0  0
   28.8447    3.5020   34.3013 H   0  0  0  0  0  0  0  0  0  0  0  0
   29.2620    2.3190   33.0156 H   0  0  0  0  0  0  0  0  0  0  0  0
  1  2  1  0  0  0  0
  2  3  1  0  0  0  0
  3  4  1  0  0  0  0
  4 10  1  0  0  0  0
  4  5  2  0  0  0  0
  5  6  1  0  0  0  0
  6  7  1  0  0  0  0
  6 13  2  0  0  0  0
  7  8  1  0  0  0  0
  8  9  2  0  0  0  0
  8 10  1  0  0  0  0
 10 11  1  0  0  0  0
 11 12  3  0  0  0  0
 13 14  1  0  0  0  0
 14 15  2  0  0  0  0
 14 16  1  0  0  0  0
 16 17  1  0  0  0  0
 17 24  2  0  0  0  0
 17 18  1  0  0  0  0
 18 19  1  0  0  0  0
 18 21  2  0  0  0  0
 19 20  1  0  0  0  0
 21 22  1  0  0  0  0
 22 23  1  0  0  0  0
 22 27  2  0  0  0  0
 23 24  1  0  0  0  0
 23 25  1  0  0  0  0
 25 26  1  0  0  0  0
 27 28  1  0  0  0  0
 28 29  2  0  0  0  0
 28 30  1  0  0  0  0
  1 31  1  0  0  0  0
  1 32  1  0  0  0  0
  1 33  1  0  0  0  0
  2 34  1  0  0  0  0
  2 35  1  0  0  0  0
  7 36  1  0  0  0  0
  7 37  1  0  0  0  0
  9 38  1  0  0  0  0
 10 39  1  0  0  0  0
 16 40  1  0  0  0  0
 16 41  1  0  0  0  0
 20 42  1  0  0  0  0
 20 43  1  0  0  0  0
 20 44  1  0  0  0  0
 21 45  1  0  0  0  0
 23 46  1  0  0  0  0
 24 47  1  0  0  0  0
 26 48  1  0  0  0  0
 26 49  1  0  0  0  0
 26 50  1  0  0  0  0
 30 51  1  0  0  0  0
 30 52  1  0  0  0  0
 30 53  1  0  0  0  0
M  END
> <i_m_stars>
0

> <r_user_dG.exp>
-10.141692

$$$$
18637-1
  -OEChem-05192314073D
 Structure written by MMmdl.
 53 54  0     1  0  0  0  0  0999 V2000
   24.0679   12.3974   30.2299 C   0  0  0  0  0  0  0  0  0  0  0  0
   23.3159   11.0783   30.4227 C   0  0  0  0  0  0  0  0  0  0  0  0
   22.2074   11.3318   31.2810 O   0  0  0  0  0  0  0  0  0  0  0  0
   21.4078   10.2815   31.6977 C   0  0  0  0  0  0  0  0  0  0  0  0
   21.7477    9.0318   31.2791 N   0  0  0  0  0  0  0  0  0  0  0  0
   20.9736    8.0017   31.6536 C   0  0  0  0  0  0  0  0  0  0  0  0
   19.8665    8.1461   32.4779 C   0  0  0  0  0  0  0  0  0  0  0  0
   19.5200    9.4177   32.8981 C   0  0  0  0  0  0  0  0  0  0  0  0
   18.3829    9.4988   33.6931 N   0  0  0  0  0  0  0  0  0  0  0  0
   20.2909   10.5235   32.5051 C   0  0  3  0  0  0  0  0  0  0  0  0
   19.9670   11.8935   32.8853 C   0  0  0  0  0  0  0  0  0  0  0  0
   19.7174   12.9843   33.1812 N   0  0  0  0  0  0  0  0  0  0  0  0
   21.4331    6.8194   31.1098 N   0  0  0  0  0  0  0  0  0  0  0  0
   20.8527    5.6189   31.0281 C   0  0  0  0  0  0  0  0  0  0  0  0
   19.7272    5.3573   31.4476 O   0  0  0  0  0  0  0  0  0  0  0  0
   21.6390    4.5479   30.2799 C   0  0  0  0  0  0  0  0  0  0  0  0
   23.0290    4.2861   30.8549 C   0  0  0  0  0  0  0  0  0  0  0  0
   24.1071    5.1197   30.5266 C   0  0  0  0  0  0  0  0  0  0  0  0
   23.8494    6.2028   29.7043 O   0  0  0  0  0  0  0  0  0  0  0  0
   24.8536    7.1989   29.5184 C   0  0  0  0  0  0  0  0  0  0  0  0
   25.3718    4.8226   31.0461 C   0  0  0  0  0  0  0  0  0  0  0  0
   25.5645    3.7381   31.9139 C   0  0  0  0  0  0  0  0  0  0  0  0
   24.4775    2.9179   32.2550 C   0  0  0  0  0  0  0  0  0  0  0  0
   23.2164    3.1999   31.7130 C   0  0  0  0  0  0  0  0  0  0  0  0
   24.7079    1.8722   33.1347 O   0  0  0  0  0  0  0  0  0  0  0  0
   23.7954    0.7759   33.1653 C   0  0  0  0  0  0  0  0  0  0  0  0
   26.8105    3.4129   32.4986 N   0  0  0  0  0  0  0  0  0  0  0  0
   28.0304    3.9580   32.3626 C   0  0  0  0  0  0  0  0  0  0  0  0
   28.3090    4.8809   31.6038 O   0  0  0  0  0  0  0  0  0  0  0  0
   29.1268    3.3864   33.2444 C   0  0  0  0  0  0  0  0  0  0  0  0
   24.9324   12.2341   29.5696 H   0  0  0  0  0  0  0  0  0  0  0  0
   23.3951   13.1399   29.7761 H   0  0  0  0  0  0  0  0  0  0  0  0
   24.4166   12.7665   31.2057 H   0  0  0  0  0  0  0  0  0  0  0  0
   22.9596   10.7050   29.4513 H   0  0  0  0  0  0  0  0  0  0  0  0
   23.9811   10.3316   30.8809 H   0  0  0  0  0  0  0  0  0  0  0  0
   19.0018    7.7360   31.9357 H   0  0  0  0  0  0  0  0  0  0  0  0
   20.0523    7.5449   33.3801 H   0  0  0  0  0  0  0  0  0  0  0  0
   18.1753   10.4413   33.9549 H   0  0  0  0  0  0  0  0  0  0  0  0
   20.9130   10.4158   33.4059 H   0  0  0  0  0  0  0  0  0  0  0  0
   21.0667    3.6092   30.3162 H   0  0  0  0  0  0  0  0  0  0  0  0
   21.7517    4.8684   29.2337 H   0  0  0  0  0  0  0  0  0  0  0  0
   24.4769    7.9778   28.8391 H   0  0  0  0  0  0  0  0  0  0  0  0
   25.1064    7.6502   30.4892 H   0  0  0  0  0  0  0  0  0  0  0  0
   25.7522    6.7368   29.0837 H   0  0  0  0  0  0  0  0  0  0  0  0
   26.0313    4.6517   30.1824 H   0  0  0  0  0  0  0  0  0  0  0  0
   25.7041    5.7195   31.5894 H   0  0  0  0  0  0  0  0  0  0  0  0
   22.3768    2.5680   31.9624 H   0  0  0  0  0  0  0  0  0  0  0  0
   24.1278    0.0422   33.9145 H   0  0  0  0  0  0  0  0  0  0  0  0
   22.7922    1.1413   33.4301 H   0  0  0  0  0  0  0  0  0  0  0  0
   23.7622    0.2989   32.1747 H   0  0  0  0  0  0  0  0  0  0  0  0
   30.0677    3.9238   33.0552 H   0  0  0  0  0  0  0  0  0  0  0  0
   28.8447    3.5020   34.3013 H   0  0  0  0  0  0  0  0  0  0  0  0
   29.2620    2.3190   33.0156 H   0  0  0  0  0  0  0  0  0  0  0  0
  1  2  1  0  0  0  0
  2  3  1  0  0  0  0
  3  4  1  0  0  0  0
  4 10  1  0  0  0  0
  4  5  2  0  0  0  0
  5  6  1  0  0  0  0
  6  7  1  0  0  0  0
  6 13  2  0  0  0  0
  7  8  1  0  0  0  0
  8  9  2  0  0  0  0
  8 10  1  0  0  0  0
 10 11  1  0  0  0  0
 11 12  3  0  0  0  0
 13 14  1  0  0  0  0
 14 15  2  0  0  0  0
 14 16  1  0  0  0  0
 16 17  1  0  0  0  0
 17 24  1  0  0  0  0
 17 18  2  0  0  0  0
 18 19  1  0  0  0  0
 18 21  1  0  0  0  0
 19 20  1  0  0  0  0
 21 22  1  0  0  0  0
 22 23  1  0  0  0  0
 22 27  2  0  0  0  0
 23 24  2  0  0  0  0
 23 25  1  0  0  0  0
 25 26  1  0  0  0  0
 27 28  1  0  0  0  0
 28 29  2  0  0  0  0
 28 30  1  0  0  0  0
  1 31  1  0  0  0  0
  1 32  1  0  0  0  0
  1 33  1  0  0  0  0
  2 34  1  0  0  0  0
  2 35  1  0  0  0  0
  7 36  1  0  0  0  0
  7 37  1  0  0  0  0
  9 38  1  0  0  0  0
 10 39  1  0  0  0  0
 16 40  1  0  0  0  0
 16 41  1  0  0  0  0
 20 42  1  0  0  0  0
 20 43  1  0  0  0  0
 20 44  1  0  0  0  0
 21 45  1  0  0  0  0
 21 46  1  0  0  0  0
 24 47  1  0  0  0  0
 26 48  1  0  0  0  0
 26 49  1  0  0  0  0
 26 50  1  0  0  0  0
 30 51  1  0  0  0  0
 30 52  1  0  0  0  0
 30 53  1  0  0  0  0
M  END
> <i_m_stars>
0

> <r_user_dG.exp>
-10.141692

$$$$
18637-1
  -OEChem-05192314073D
 Structure written by MMmdl.
 53 54  0     1  0  0  0  0  0999 V2000
   24.0679   12.3974   30.2299 C   0  0  0  0  0  0  0  0  0  0  0  0
   23.3159   11.0783   30.4227 C   0  0  0  0  0  0  0  0  0  0  0  0
   22.2074   11.3318   31.2810 O   0  0  0  0  0  0  0  0  0  0  0  0
   21.4078   10.2815   31.6977 C   0  0  0  0  0  0  0  0  0  0  0  0
   21.7477    9.0318   31.2791 N   0  0  0  0  0  0  0  0  0  0  0  0
   20.9736    8.0017   31.6536 C   0  0  0  0  0  0  0  0  0  0  0  0
   19.8665    8.1461   32.4779 C   0  0  0  0  0  0  0  0  0  0  0  0
   19.5200    9.4177   32.8981 C   0  0  0  0  0  0  0  0  0  0  0  0
   18.3829    9.4988   33.6931 N   0  0  0  0  0  0  0  0  0  0  0  0
   20.2909   10.5235   32.5051 C   0  0  3  0  0  0  0  0  0  0  0  0
   19.9670   11.8935   32.8853 C   0  0  0  0  0  0  0  0  0  0  0  0
   19.7174   12.9843   33.1812 N   0  0  0  0  0  0  0  0  0  0  0  0
   21.4331    6.8194   31.1098 N   0  0  0  0  0  0  0  0  0  0  0  0
   20.8527    5.6189   31.0281 C   0  0  0  0  0  0  0  0  0  0  0  0
   19.7272    5.3573   31.4476 O   0  0  0  0  0  0  0  0  0  0  0  0
   21.6390    4.5479   30.2799 C   0  0  0  0  0  0  0  0  0  0  0  0
   23.0290    4.2861   30.8549 C   0  0  3  0  0  0  0  0  0  0  0  0
   24.1071    5.1197   30.5266 C   0  0  0  0  0  0  0  0  0  0  0  0
   23.8494    6.2028   29.7043 O   0  0  0  0  0  0  0  0  0  0  0  0
   24.8536    7.1989   29.5184 C   0  0  0  0  0  0  0  0  0  0  0  0
   25.3718    4.8226   31.0461 C   0  0  0  0  0  0  0  0  0  0  0  0
   25.5645    3.7381   31.9139 C   0  0  0  0  0  0  0  0  0  0  0  0
   24.4775    2.9179   32.2550 C   0  0  0  0  0  0  0  0  0  0  0  0
   23.2164    3.1999   31.7130 C   0  0  0  0  0  0  0  0  0  0  0  0
   24.7079    1.8722   33.1347 O   0  0  0  0  0  0  0  0  0  0  0  0
   23.7954    0.7759   33.1653 C   0  0  0  0  0  0  0  0  0  0  0  0
   26.8105    3.4129   32.4986 N   0  0  0  0  0  0  0  0  0  0  0  0
   28.0304    3.9580   32.3626 C   0  0  0  0  0  0  0  0  0  0  0  0
   28.3090    4.8809   31.6038 O   0  0  0  0  0  0  0  0  0  0  0  0
   29.1268    3.3864   33.2444 C   0  0  0  0  0  0  0  0  0  0  0  0
   24.9324   12.2341   29.5696 H   0  0  0  0  0  0  0  0  0  0  0  0
   23.3951   13.1399   29.7761 H   0  0  0  0  0  0  0  0  0  0  0  0
   24.4166   12.7665   31.2057 H   0  0  0  0  0  0  0  0  0  0  0  0
   22.9596   10.7050   29.4513 H   0  0  0  0  0  0  0  0  0  0  0  0
   23.9811   10.3316   30.8809 H   0  0  0  0  0  0  0  0  0  0  0  0
   19.2892    7.2862   32.7840 H   0  0  0  0  0  0  0  0  0  0  0  0
   18.1753   10.4413   33.9549 H   0  0  0  0  0  0  0  0  0  0  0  0
   20.9130   10.4158   33.4059 H   0  0  0  0  0  0  0  0  0  0  0  0
   22.3494    6.8695   30.7124 H   0  0  0  0  0  0  0  0  0  0  0  0
   21.0667    3.6092   30.3162 H   0  0  0  0  0  0  0  0  0  0  0  0
   21.7517    4.8684   29.2337 H   0  0  0  0  0  0  0  0  0  0  0  0
   22.7942    4.9278   31.7169 H   0  0  0  0  0  0  0  0  0  0  0  0
   24.4769    7.9778   28.8391 H   0  0  0  0  0  0  0  0  0  0  0  0
   25.1064    7.6502   30.4892 H   0  0  0  0  0  0  0  0  0  0  0  0
   25.7522    6.7368   29.0837 H   0  0  0  0  0  0  0  0  0  0  0  0
   26.2151    5.4399   30.7737 H   0  0  0  0  0  0  0  0  0  0  0  0
   22.3768    2.5680   31.9624 H   0  0  0  0  0  0  0  0  0  0  0  0
   24.1278    0.0422   33.9145 H   0  0  0  0  0  0  0  0  0  0  0  0
   22.7922    1.1413   33.4301 H   0  0  0  0  0  0  0  0  0  0  0  0
   23.7622    0.2989   32.1747 H   0  0  0  0  0  0  0  0  0  0  0  0
   30.0677    3.9238   33.0552 H   0  0  0  0  0  0  0  0  0  0  0  0
   28.8447    3.5020   34.3013 H   0  0  0  0  0  0  0  0  0  0  0  0
   29.2620    2.3190   33.0156 H   0  0  0  0  0  0  0  0  0  0  0  0
  1  2  1  0  0  0  0
  2  3  1  0  0  0  0
  3  4  1  0  0  0  0
  4 10  1  0  0  0  0
  4  5  2  0  0  0  0
  5  6  1  0  0  0  0
  6  7  2  0  0  0  0
  6 13  1  0  0  0  0
  7  8  1  0  0  0  0
  8  9  2  0  0  0  0
  8 10  1  0  0  0  0
 10 11  1  0  0  0  0
 11 12  3  0  0  0  0
 13 14  1  0  0  0  0
 14 15  2  0  0  0  0
 14 16  1  0  0  0  0
 16 17  1  0  0  0  0
 17 24  1  0  0  0  0
 17 18  1  0  0  0  0
 18 19  1  0  0  0  0
 18 21  2  0  0  0  0
 19 20  1  0  0  0  0
 21 22  1  0  0  0  0
 22 23  1  0  0  0  0
 22 27  2  0  0  0  0
 23 24  2  0  0  0  0
 23 25  1  0  0  0  0
 25 26  1  0  0  0  0
 27 28  1  0  0  0  0
 28 29  2  0  0  0  0
 28 30  1  0  0  0  0
  1 31  1  0  0  0  0
  1 32  1  0  0  0  0
  1 33  1  0  0  0  0
  2 34  1  0  0  0  0
  2 35  1  0  0  0  0
  7 36  1  0  0  0  0
  9 37  1  0  0  0  0
 10 38  1  0  0  0  0
 13 39  1  0  0  0  0
 16 40  1  0  0  0  0
 16 41  1  0  0  0  0
 17 42  1  0  0  0  0
 20 43  1  0  0  0  0
 20 44  1  0  0  0  0
 20 45  1  0  0  0  0
 21 46  1  0  0  0  0
 24 47  1  0  0  0  0
 26 48  1  0  0  0  0
 26 49  1  0  0  0  0
 26 50  1  0  0  0  0
 30 51  1  0  0  0  0
 30 52  1  0  0  0  0
 30 53  1  0  0  0  0
M  END
> <i_m_stars>
0

> <r_user_dG.exp>
-10.141692

$$$$
18637-1
  -OEChem-05192314073D
 Structure written by MMmdl.
 53 54  0     1  0  0  0  0  0999 V2000
   24.0679   12.3974   30.2299 C   0  0  0  0  0  0  0  0  0  0  0  0
   23.3159   11.0783   30.4227 C   0  0  0  0  0  0  0  0  0  0  0  0
   22.2074   11.3318   31.2810 O   0  0  0  0  0  0  0  0  0  0  0  0
   21.4078   10.2815   31.6977 C   0  0  0  0  0  0  0  0  0  0  0  0
   21.7477    9.0318   31.2791 N   0  0  0  0  0  0  0  0  0  0  0  0
   20.9736    8.0017   31.6536 C   0  0  0  0  0  0  0  0  0  0  0  0
   19.8665    8.1461   32.4779 C   0  0  0  0  0  0  0  0  0  0  0  0
   19.5200    9.4177   32.8981 C   0  0  0  0  0  0  0  0  0  0  0  0
   18.3829    9.4988   33.6931 N   0  0  0  0  0  0  0  0  0  0  0  0
   20.2909   10.5235   32.5051 C   0  0  3  0  0  0  0  0  0  0  0  0
   19.9670   11.8935   32.8853 C   0  0  0  0  0  0  0  0  0  0  0  0
   19.7174   12.9843   33.1812 N   0  0  0  0  0  0  0  0  0  0  0  0
   21.4331    6.8194   31.1098 N   0  0  0  0  0  0  0  0  0  0  0  0
   20.8527    5.6189   31.0281 C   0  0  0  0  0  0  0  0  0  0  0  0
   19.7272    5.3573   31.4476 O   0  0  0  0  0  0  0  0  0  0  0  0
   21.6390    4.5479   30.2799 C   0  0  0  0  0  0  0  0  0  0  0  0
   23.0290    4.2861   30.8549 C   0  0  0  0  0  0  0  0  0  0  0  0
   24.1071    5.1197   30.5266 C   0  0  0  0  0  0  0  0  0  0  0  0
   23.8494    6.2028   29.7043 O   0  0  0  0  0  0  0  0  0  0  0  0
   24.8536    7.1989   29.5184 C   0  0  0  0  0  0  0  0  0  0  0  0
   25.3718    4.8226   31.0461 C   0  0  0  0  0  0  0  0  0  0  0  0
   25.5645    3.7381   31.9139 C   0  0  0  0  0  0  0  0  0  0  0  0
   24.4775    2.9179   32.2550 C   0  0  3  0  0  0  0  0  0  0  0  0
   23.2164    3.1999   31.7130 C   0  0  0  0  0  0  0  0  0  0  0  0
   24.7079    1.8722   33.1347 O   0  0  0  0  0  0  0  0  0  0  0  0
   23.7954    0.7759   33.1653 C   0  0  0  0  0  0  0  0  0  0  0  0
   26.8105    3.4129   32.4986 N   0  0  0  0  0  0  0  0  0  0  0  0
   28.0304    3.9580   32.3626 C   0  0  0  0  0  0  0  0  0  0  0  0
   28.3090    4.8809   31.6038 O   0  0  0  0  0  0  0  0  0  0  0  0
   29.1268    3.3864   33.2444 C   0  0  0  0  0  0  0  0  0  0  0  0
   24.9324   12.2341   29.5696 H   0  0  0  0  0  0  0  0  0  0  0  0
   23.3951   13.1399   29.7761 H   0  0  0  0  0  0  0  0  0  0  0  0
   24.4166   12.7665   31.2057 H   0  0  0  0  0  0  0  0  0  0  0  0
   22.9596   10.7050   29.4513 H   0  0  0  0  0  0  0  0  0  0  0  0
   23.9811   10.3316   30.8809 H   0  0  0  0  0  0  0  0  0  0  0  0
   19.2892    7.2862   32.7840 H   0  0  0  0  0  0  0  0  0  0  0  0
   18.1753   10.4413   33.9549 H   0  0  0  0  0  0  0  0  0  0  0  0
   20.9130   10.4158   33.4059 H   0  0  0  0  0  0  0  0  0  0  0  0
   22.3494    6.8695   30.7124 H   0  0  0  0  0  0  0  0  0  0  0  0
   21.0667    3.6092   30.3162 H   0  0  0  0  0  0  0  0  0  0  0  0
   21.7517    4.8684   29.2337 H   0  0  0  0  0  0  0  0  0  0  0  0
   24.4769    7.9778   28.8391 H   0  0  0  0  0  0  0  0  0  0  0  0
   25.1064    7.6502   30.4892 H   0  0  0  0  0  0  0  0  0  0  0  0
   25.7522    6.7368   29.0837 H   0  0  0  0  0  0  0  0  0  0  0  0
   26.2151    5.4399   30.7737 H   0  0  0  0  0  0  0  0  0  0  0  0
   24.7015    2.2581   31.4038 H   0  0  0  0  0  0  0  0  0  0  0  0
   22.3768    2.5680   31.9624 H   0  0  0  0  0  0  0  0  0  0  0  0
   24.1278    0.0422   33.9145 H   0  0  0  0  0  0  0  0  0  0  0  0
   22.7922    1.1413   33.4301 H   0  0  0  0  0  0  0  0  0  0  0  0
   23.7622    0.2989   32.1747 H   0  0  0  0  0  0  0  0  0  0  0  0
   30.0677    3.9238   33.0552 H   0  0  0  0  0  0  0  0  0  0  0  0
   28.8447    3.5020   34.3013 H   0  0  0  0  0  0  0  0  0  0  0  0
   29.2620    2.3190   33.0156 H   0  0  0  0  0  0  0  0  0  0  0  0
  1  2  1  0  0  0  0
  2  3  1  0  0  0  0
  3  4  1  0  0  0  0
  4 10  1  0  0  0  0
  4  5  2  0  0  0  0
  5  6  1  0  0  0  0
  6  7  2  0  0  0  0
  6 13  1  0  0  0  0
  7  8  1  0  0  0  0
  8  9  2  0  0  0  0
  8 10  1  0  0  0  0
 10 11  1  0  0  0  0
 11 12  3  0  0  0  0
 13 14  1  0  0  0  0
 14 15  2  0  0  0  0
 14 16  1  0  0  0  0
 16 17  1  0  0  0  0
 17 24  2  0  0  0  0
 17 18  1  0  0  0  0
 18 19  1  0  0  0  0
 18 21  2  0  0  0  0
 19 20  1  0  0  0  0
 21 22  1  0  0  0  0
 22 23  1  0  0  0  0
 22 27  2  0  0  0  0
 23 24  1  0  0  0  0
 23 25  1  0  0  0  0
 25 26  1  0  0  0  0
 27 28  1  0  0  0  0
 28 29  2  0  0  0  0
 28 30  1  0  0  0  0
  1 31  1  0  0  0  0
  1 32  1  0  0  0  0
  1 33  1  0  0  0  0
  2 34  1  0  0  0  0
  2 35  1  0  0  0  0
  7 36  1  0  0  0  0
  9 37  1  0  0  0  0
 10 38  1  0  0  0  0
 13 39  1  0  0  0  0
 16 40  1  0  0  0  0
 16 41  1  0  0  0  0
 20 42  1  0  0  0  0
 20 43  1  0  0  0  0
 20 44  1  0  0  0  0
 21 45  1  0  0  0  0
 23 46  1  0  0  0  0
 24 47  1  0  0  0  0
 26 48  1  0  0  0  0
 26 49  1  0  0  0  0
 26 50  1  0  0  0  0
 30 51  1  0  0  0  0
 30 52  1  0  0  0  0
 30 53  1  0  0  0  0
M  END
> <i_m_stars>
0

> <r_user_dG.exp>
-10.141692

$$$$
18637-1
  -OEChem-05192314073D
 Structure written by MMmdl.
 53 54  0     1  0  0  0  0  0999 V2000
   24.0679   12.3974   30.2299 C   0  0  0  0  0  0  0  0  0  0  0  0
   23.3159   11.0783   30.4227 C   0  0  0  0  0  0  0  0  0  0  0  0
   22.2074   11.3318   31.2810 O   0  0  0  0  0  0  0  0  0  0  0  0
   21.4078   10.2815   31.6977 C   0  0  0  0  0  0  0  0  0  0  0  0
   21.7477    9.0318   31.2791 N   0  0  0  0  0  0  0  0  0  0  0  0
   20.9736    8.0017   31.6536 C   0  0  0  0  0  0  0  0  0  0  0  0
   19.8665    8.1461   32.4779 C   0  0  0  0  0  0  0  0  0  0  0  0
   19.5200    9.4177   32.8981 C   0  0  0  0  0  0  0  0  0  0  0  0
   18.3829    9.4988   33.6931 N   0  0  0  0  0  0  0  0  0  0  0  0
   20.2909   10.5235   32.5051 C   0  0  3  0  0  0  0  0  0  0  0  0
   19.9670   11.8935   32.8853 C   0  0  0  0  0  0  0  0  0  0  0  0
   19.7174   12.9843   33.1812 N   0  0  0  0  0  0  0  0  0  0  0  0
   21.4331    6.8194   31.1098 N   0  0  0  0  0  0  0  0  0  0  0  0
   20.8527    5.6189   31.0281 C   0  0  0  0  0  0  0  0  0  0  0  0
   19.7272    5.3573   31.4476 O   0  0  0  0  0  0  0  0  0  0  0  0
   21.6390    4.5479   30.2799 C   0  0  0  0  0  0  0  0  0  0  0  0
   23.0290    4.2861   30.8549 C   0  0  0  0  0  0  0  0  0  0  0  0
   24.1071    5.1197   30.5266 C   0  0  0  0  0  0  0  0  0  0  0  0
   23.8494    6.2028   29.7043 O   0  0  0  0  0  0  0  0  0  0  0  0
   24.8536    7.1989   29.5184 C   0  0  0  0  0  0  0  0  0  0  0  0
   25.3718    4.8226   31.0461 C   0  0  0  0  0  0  0  0  0  0  0  0
   25.5645    3.7381   31.9139 C   0  0  0  0  0  0  0  0  0  0  0  0
   24.4775    2.9179   32.2550 C   0  0  0  0  0  0  0  0  0  0  0  0
   23.2164    3.1999   31.7130 C   0  0  0  0  0  0  0  0  0  0  0  0
   24.7079    1.8722   33.1347 O   0  0  0  0  0  0  0  0  0  0  0  0
   23.7954    0.7759   33.1653 C   0  0  0  0  0  0  0  0  0  0  0  0
   26.8105    3.4129   32.4986 N   0  0  0  0  0  0  0  0  0  0  0  0
   28.0304    3.9580   32.3626 C   0  0  0  0  0  0  0  0  0  0  0  0
   28.3090    4.8809   31.6038 O   0  0  0  0  0  0  0  0  0  0  0  0
   29.1268    3.3864   33.2444 C   0  0  0  0  0  0  0  0  0  0  0  0
   24.9324   12.2341   29.5696 H   0  0  0  0  0  0  0  0  0  0  0  0
   23.3951   13.1399   29.7761 H   0  0  0  0  0  0  0  0  0  0  0  0
   24.4166   12.7665   31.2057 H   0  0  0  0  0  0  0  0  0  0  0  0
   22.9596   10.7050   29.4513 H   0  0  0  0  0  0  0  0  0  0  0  0
   23.9811   10.3316   30.8809 H   0  0  0  0  0  0  0  0  0  0  0  0
   19.2892    7.2862   32.7840 H   0  0  0  0  0  0  0  0  0  0  0  0
   18.1753   10.4413   33.9549 H   0  0  0  0  0  0  0  0  0  0  0  0
   20.9130   10.4158   33.4059 H   0  0  0  0  0  0  0  0  0  0  0  0
   22.3494    6.8695   30.7124 H   0  0  0  0  0  0  0  0  0  0  0  0
   21.0667    3.6092   30.3162 H   0  0  0  0  0  0  0  0  0  0  0  0
   21.7517    4.8684   29.2337 H   0  0  0  0  0  0  0  0  0  0  0  0
   24.4769    7.9778   28.8391 H   0  0  0  0  0  0  0  0  0  0  0  0
   25.1064    7.6502   30.4892 H   0  0  0  0  0  0  0  0  0  0  0  0
   25.7522    6.7368   29.0837 H   0  0  0  0  0  0  0  0  0  0  0  0
   26.0313    4.6517   30.1824 H   0  0  0  0  0  0  0  0  0  0  0  0
   25.7041    5.7195   31.5894 H   0  0  0  0  0  0  0  0  0  0  0  0
   22.3768    2.5680   31.9624 H   0  0  0  0  0  0  0  0  0  0  0  0
   24.1278    0.0422   33.9145 H   0  0  0  0  0  0  0  0  0  0  0  0
   22.7922    1.1413   33.4301 H   0  0  0  0  0  0  0  0  0  0  0  0
   23.7622    0.2989   32.1747 H   0  0  0  0  0  0  0  0  0  0  0  0
   30.0677    3.9238   33.0552 H   0  0  0  0  0  0  0  0  0  0  0  0
   28.8447    3.5020   34.3013 H   0  0  0  0  0  0  0  0  0  0  0  0
   29.2620    2.3190   33.0156 H   0  0  0  0  0  0  0  0  0  0  0  0
  1  2  1  0  0  0  0
  2  3  1  0  0  0  0
  3  4  1  0  0  0  0
  4 10  1  0  0  0  0
  4  5  2  0  0  0  0
  5  6  1  0  0  0  0
  6  7  2  0  0  0  0
  6 13  1  0  0  0  0
  7  8  1  0  0  0  0
  8  9  2  0  0  0  0
  8 10  1  0  0  0  0
 10 11  1  0  0  0  0
 11 12  3  0  0  0  0
 13 14  1  0  0  0  0
 14 15  2  0  0  0  0
 14 16  1  0  0  0  0
 16 17  1  0  0  0  0
 17 24  1  0  0  0  0
 17 18  2  0  0  0  0
 18 19  1  0  0  0  0
 18 21  1  0  0  0  0
 19 20  1  0  0  0  0
 21 22  1  0  0  0  0
 22 23  1  0  0  0  0
 22 27  2  0  0  0  0
 23 24  2  0  0  0  0
 23 25  1  0  0  0  0
 25 26  1  0  0  0  0
 27 28  1  0  0  0  0
 28 29  2  0  0  0  0
 28 30  1  0  0  0  0
  1 31  1  0  0  0  0
  1 32  1  0  0  0  0
  1 33  1  0  0  0  0
  2 34  1  0  0  0  0
  2 35  1  0  0  0  0
  7 36  1  0  0  0  0
  9 37  1  0  0  0  0
 10 38  1  0  0  0  0
 13 39  1  0  0  0  0
 16 40  1  0  0  0  0
 16 41  1  0  0  0  0
 20 42  1  0  0  0  0
 20 43  1  0  0  0  0
 20 44  1  0  0  0  0
 21 45  1  0  0  0  0
 21 46  1  0  0  0  0
 24 47  1  0  0  0  0
 26 48  1  0  0  0  0
 26 49  1  0  0  0  0
 26 50  1  0  0  0  0
 30 51  1  0  0  0  0
 30 52  1  0  0  0  0
 30 53  1  0  0  0  0
M  END
> <i_m_stars>
0

> <r_user_dG.exp>
-10.141692

$$$$
18637-1
  -OEChem-05192314073D
 Structure written by MMmdl.
 53 54  0     1  0  0  0  0  0999 V2000
   24.0679   12.3974   30.2299 C   0  0  0  0  0  0  0  0  0  0  0  0
   23.3159   11.0783   30.4227 C   0  0  0  0  0  0  0  0  0  0  0  0
   22.2074   11.3318   31.2810 O   0  0  0  0  0  0  0  0  0  0  0  0
   21.4078   10.2815   31.6977 C   0  0  0  0  0  0  0  0  0  0  0  0
   21.7477    9.0318   31.2791 N   0  0  0  0  0  0  0  0  0  0  0  0
   20.9736    8.0017   31.6536 C   0  0  0  0  0  0  0  0  0  0  0  0
   19.8665    8.1461   32.4779 C   0  0  0  0  0  0  0  0  0  0  0  0
   19.5200    9.4177   32.8981 C   0  0  0  0  0  0  0  0  0  0  0  0
   18.3829    9.4988   33.6931 N   0  0  0  0  0  0  0  0  0  0  0  0
   20.2909   10.5235   32.5051 C   0  0  0  0  0  0  0  0  0  0  0  0
   19.9670   11.8935   32.8853 C   0  0  0  0  0  0  0  0  0  0  0  0
   19.7174   12.9843   33.1812 N   0  0  0  0  0  0  0  0  0  0  0  0
   21.4331    6.8194   31.1098 N   0  0  0  0  0  0  0  0  0  0  0  0
   20.8527    5.6189   31.0281 C   0  0  0  0  0  0  0  0  0  0  0  0
   19.7272    5.3573   31.4476 O   0  0  0  0  0  0  0  0  0  0  0  0
   21.6390    4.5479   30.2799 C   0  0  0  0  0  0  0  0  0  0  0  0
   23.0290    4.2861   30.8549 C   0  0  3  0  0  0  0  0  0  0  0  0
   24.1071    5.1197   30.5266 C   0  0  0  0  0  0  0  0  0  0  0  0
   23.8494    6.2028   29.7043 O   0  0  0  0  0  0  0  0  0  0  0  0
   24.8536    7.1989   29.5184 C   0  0  0  0  0  0  0  0  0  0  0  0
   25.3718    4.8226   31.0461 C   0  0  0  0  0  0  0  0  0  0  0  0
   25.5645    3.7381   31.9139 C   0  0  0  0  0  0  0  0  0  0  0  0
   24.4775    2.9179   32.2550 C   0  0  0  0  0  0  0  0  0  0  0  0
   23.2164    3.1999   31.7130 C   0  0  0  0  0  0  0  0  0  0  0  0
   24.7079    1.8722   33.1347 O   0  0  0  0  0  0  0  0  0  0  0  0
   23.7954    0.7759   33.1653 C   0  0  0  0  0  0  0  0  0  0  0  0
   26.8105    3.4129   32.4986 N   0  0  0  0  0  0  0  0  0  0  0  0
   28.0304    3.9580   32.3626 C   0  0  0  0  0  0  0  0  0  0  0  0
   28.3090    4.8809   31.6038 O   0  0  0  0  0  0  0  0  0  0  0  0
   29.1268    3.3864   33.2444 C   0  0  0  0  0  0  0  0  0  0  0  0
   24.9324   12.2341   29.5696 H   0  0  0  0  0  0  0  0  0  0  0  0
   23.3951   13.1399   29.7761 H   0  0  0  0  0  0  0  0  0  0  0  0
   24.4166   12.7665   31.2057 H   0  0  0  0  0  0  0  0  0  0  0  0
   22.9596   10.7050   29.4513 H   0  0  0  0  0  0  0  0  0  0  0  0
   23.9811   10.3316   30.8809 H   0  0  0  0  0  0  0  0  0  0  0  0
   19.0018    7.7360   31.9357 H   0  0  0  0  0  0  0  0  0  0  0  0
   20.0523    7.5449   33.3801 H   0  0  0  0  0  0  0  0  0  0  0  0
   18.1753   10.4413   33.9549 H   0  0  0  0  0  0  0  0  0  0  0  0
   22.3494    6.8695   30.7124 H   0  0  0  0  0  0  0  0  0  0  0  0
   21.0667    3.6092   30.3162 H   0  0  0  0  0  0  0  0  0  0  0  0
   21.7517    4.8684   29.2337 H   0  0  0  0  0  0  0  0  0  0  0  0
   22.7942    4.9278   31.7169 H   0  0  0  0  0  0  0  0  0  0  0  0
   24.4769    7.9778   28.8391 H   0  0  0  0  0  0  0  0  0  0  0  0
   25.1064    7.6502   30.4892 H   0  0  0  0  0  0  0  0  0  0  0  0
   25.7522    6.7368   29.0837 H   0  0  0  0  0  0  0  0  0  0  0  0
   26.2151    5.4399   30.7737 H   0  0  0  0  0  0  0  0  0  0  0  0
   22.3768    2.5680   31.9624 H   0  0  0  0  0  0  0  0  0  0  0  0
   24.1278    0.0422   33.9145 H   0  0  0  0  0  0  0  0  0  0  0  0
   22.7922    1.1413   33.4301 H   0  0  0  0  0  0  0  0  0  0  0  0
   23.7622    0.2989   32.1747 H   0  0  0  0  0  0  0  0  0  0  0  0
   30.0677    3.9238   33.0552 H   0  0  0  0  0  0  0  0  0  0  0  0
   28.8447    3.5020   34.3013 H   0  0  0  0  0  0  0  0  0  0  0  0
   29.2620    2.3190   33.0156 H   0  0  0  0  0  0  0  0  0  0  0  0
  1  2  1  0  0  0  0
  2  3  1  0  0  0  0
  3  4  1  0  0  0  0
  4 10  2  0  0  0  0
  4  5  1  0  0  0  0
  5  6  2  0  0  0  0
  6  7  1  0  0  0  0
  6 13  1  0  0  0  0
  7  8  1  0  0  0  0
  8  9  2  0  0  0  0
  8 10  1  0  0  0  0
 10 11  1  0  0  0  0
 11 12  3  0  0  0  0
 13 14  1  0  0  0  0
 14 15  2  0  0  0  0
 14 16  1  0  0  0  0
 16 17  1  0  0  0  0
 17 24  1  0  0  0  0
 17 18  1  0  0  0  0
 18 19  1  0  0  0  0
 18 21  2  0  0  0  0
 19 20  1  0  0  0  0
 21 22  1  0  0  0  0
 22 23  1  0  0  0  0
 22 27  2  0  0  0  0
 23 24  2  0  0  0  0
 23 25  1  0  0  0  0
 25 26  1  0  0  0  0
 27 28  1  0  0  0  0
 28 29  2  0  0  0  0
 28 30  1  0  0  0  0
  1 31  1  0  0  0  0
  1 32  1  0  0  0  0
  1 33  1  0  0  0  0
  2 34  1  0  0  0  0
  2 35  1  0  0  0  0
  7 36  1  0  0  0  0
  7 37  1  0  0  0  0
  9 38  1  0  0  0  0
 13 39  1  0  0  0  0
 16 40  1  0  0  0  0
 16 41  1  0  0  0  0
 17 42  1  0  0  0  0
 20 43  1  0  0  0  0
 20 44  1  0  0  0  0
 20 45  1  0  0  0  0
 21 46  1  0  0  0  0
 24 47  1  0  0  0  0
 26 48  1  0  0  0  0
 26 49  1  0  0  0  0
 26 50  1  0  0  0  0
 30 51  1  0  0  0  0
 30 52  1  0  0  0  0
 30 53  1  0  0  0  0
M  END
> <i_m_stars>
0

> <r_user_dG.exp>
-10.141692

$$$$
18637-1
  -OEChem-05192314073D
 Structure written by MMmdl.
 53 54  0     1  0  0  0  0  0999 V2000
   24.0679   12.3974   30.2299 C   0  0  0  0  0  0  0  0  0  0  0  0
   23.3159   11.0783   30.4227 C   0  0  0  0  0  0  0  0  0  0  0  0
   22.2074   11.3318   31.2810 O   0  0  0  0  0  0  0  0  0  0  0  0
   21.4078   10.2815   31.6977 C   0  0  0  0  0  0  0  0  0  0  0  0
   21.7477    9.0318   31.2791 N   0  0  0  0  0  0  0  0  0  0  0  0
   20.9736    8.0017   31.6536 C   0  0  0  0  0  0  0  0  0  0  0  0
   19.8665    8.1461   32.4779 C   0  0  0  0  0  0  0  0  0  0  0  0
   19.5200    9.4177   32.8981 C   0  0  0  0  0  0  0  0  0  0  0  0
   18.3829    9.4988   33.6931 N   0  0  0  0  0  0  0  0  0  0  0  0
   20.2909   10.5235   32.5051 C   0  0  0  0  0  0  0  0  0  0  0  0
   19.9670   11.8935   32.8853 C   0  0  0  0  0  0  0  0  0  0  0  0
   19.7174   12.9843   33.1812 N   0  0  0  0  0  0  0  0  0  0  0  0
   21.4331    6.8194   31.1098 N   0  0  0  0  0  0  0  0  0  0  0  0
   20.8527    5.6189   31.0281 C   0  0  0  0  0  0  0  0  0  0  0  0
   19.7272    5.3573   31.4476 O   0  0  0  0  0  0  0  0  0  0  0  0
   21.6390    4.5479   30.2799 C   0  0  0  0  0  0  0  0  0  0  0  0
   23.0290    4.2861   30.8549 C   0  0  0  0  0  0  0  0  0  0  0  0
   24.1071    5.1197   30.5266 C   0  0  0  0  0  0  0  0  0  0  0  0
   23.8494    6.2028   29.7043 O   0  0  0  0  0  0  0  0  0  0  0  0
   24.8536    7.1989   29.5184 C   0  0  0  0  0  0  0  0  0  0  0  0
   25.3718    4.8226   31.0461 C   0  0  0  0  0  0  0  0  0  0  0  0
   25.5645    3.7381   31.9139 C   0  0  0  0  0  0  0  0  0  0  0  0
   24.4775    2.9179   32.2550 C   0  0  3  0  0  0  0  0  0  0  0  0
   23.2164    3.1999   31.7130 C   0  0  0  0  0  0  0  0  0  0  0  0
   24.7079    1.8722   33.1347 O   0  0  0  0  0  0  0  0  0  0  0  0
   23.7954    0.7759   33.1653 C   0  0  0  0  0  0  0  0  0  0  0  0
   26.8105    3.4129   32.4986 N   0  0  0  0  0  0  0  0  0  0  0  0
   28.0304    3.9580   32.3626 C   0  0  0  0  0  0  0  0  0  0  0  0
   28.3090    4.8809   31.6038 O   0  0  0  0  0  0  0  0  0  0  0  0
   29.1268    3.3864   33.2444 C   0  0  0  0  0  0  0  0  0  0  0  0
   24.9324   12.2341   29.5696 H   0  0  0  0  0  0  0  0  0  0  0  0
   23.3951   13.1399   29.7761 H   0  0  0  0  0  0  0  0  0  0  0  0
   24.4166   12.7665   31.2057 H   0  0  0  0  0  0  0  0  0  0  0  0
   22.9596   10.7050   29.4513 H   0  0  0  0  0  0  0  0  0  0  0  0
   23.9811   10.3316   30.8809 H   0  0  0  0  0  0  0  0  0  0  0  0
   19.0018    7.7360   31.9357 H   0  0  0  0  0  0  0  0  0  0  0  0
   20.0523    7.5449   33.3801 H   0  0  0  0  0  0  0  0  0  0  0  0
   18.1753   10.4413   33.9549 H   0  0  0  0  0  0  0  0  0  0  0  0
   22.3494    6.8695   30.7124 H   0  0  0  0  0  0  0  0  0  0  0  0
   21.0667    3.6092   30.3162 H   0  0  0  0  0  0  0  0  0  0  0  0
   21.7517    4.8684   29.2337 H   0  0  0  0  0  0  0  0  0  0  0  0
   24.4769    7.9778   28.8391 H   0  0  0  0  0  0  0  0  0  0  0  0
   25.1064    7.6502   30.4892 H   0  0  0  0  0  0  0  0  0  0  0  0
   25.7522    6.7368   29.0837 H   0  0  0  0  0  0  0  0  0  0  0  0
   26.2151    5.4399   30.7737 H   0  0  0  0  0  0  0  0  0  0  0  0
   24.7015    2.2581   31.4038 H   0  0  0  0  0  0  0  0  0  0  0  0
   22.3768    2.5680   31.9624 H   0  0  0  0  0  0  0  0  0  0  0  0
   24.1278    0.0422   33.9145 H   0  0  0  0  0  0  0  0  0  0  0  0
   22.7922    1.1413   33.4301 H   0  0  0  0  0  0  0  0  0  0  0  0
   23.7622    0.2989   32.1747 H   0  0  0  0  0  0  0  0  0  0  0  0
   30.0677    3.9238   33.0552 H   0  0  0  0  0  0  0  0  0  0  0  0
   28.8447    3.5020   34.3013 H   0  0  0  0  0  0  0  0  0  0  0  0
   29.2620    2.3190   33.0156 H   0  0  0  0  0  0  0  0  0  0  0  0
  1  2  1  0  0  0  0
  2  3  1  0  0  0  0
  3  4  1  0  0  0  0
  4 10  2  0  0  0  0
  4  5  1  0  0  0  0
  5  6  2  0  0  0  0
  6  7  1  0  0  0  0
  6 13  1  0  0  0  0
  7  8  1  0  0  0  0
  8  9  2  0  0  0  0
  8 10  1  0  0  0  0
 10 11  1  0  0  0  0
 11 12  3  0  0  0  0
 13 14  1  0  0  0  0
 14 15  2  0  0  0  0
 14 16  1  0  0  0  0
 16 17  1  0  0  0  0
 17 24  2  0  0  0  0
 17 18  1  0  0  0  0
 18 19  1  0  0  0  0
 18 21  2  0  0  0  0
 19 20  1  0  0  0  0
 21 22  1  0  0  0  0
 22 23  1  0  0  0  0
 22 27  2  0  0  0  0
 23 24  1  0  0  0  0
 23 25  1  0  0  0  0
 25 26  1  0  0  0  0
 27 28  1  0  0  0  0
 28 29  2  0  0  0  0
 28 30  1  0  0  0  0
  1 31  1  0  0  0  0
  1 32  1  0  0  0  0
  1 33  1  0  0  0  0
  2 34  1  0  0  0  0
  2 35  1  0  0  0  0
  7 36  1  0  0  0  0
  7 37  1  0  0  0  0
  9 38  1  0  0  0  0
 13 39  1  0  0  0  0
 16 40  1  0  0  0  0
 16 41  1  0  0  0  0
 20 42  1  0  0  0  0
 20 43  1  0  0  0  0
 20 44  1  0  0  0  0
 21 45  1  0  0  0  0
 23 46  1  0  0  0  0
 24 47  1  0  0  0  0
 26 48  1  0  0  0  0
 26 49  1  0  0  0  0
 26 50  1  0  0  0  0
 30 51  1  0  0  0  0
 30 52  1  0  0  0  0
 30 53  1  0  0  0  0
M  END
> <i_m_stars>
0

> <r_user_dG.exp>
-10.141692

$$$$
18637-1
  -OEChem-05192314073D
 Structure written by MMmdl.
 53 54  0     0  0  0  0  0  0999 V2000
   24.0679   12.3974   30.2299 C   0  0  0  0  0  0  0  0  0  0  0  0
   23.3159   11.0783   30.4227 C   0  0  0  0  0  0  0  0  0  0  0  0
   22.2074   11.3318   31.2810 O   0  0  0  0  0  0  0  0  0  0  0  0
   21.4078   10.2815   31.6977 C   0  0  0  0  0  0  0  0  0  0  0  0
   21.7477    9.0318   31.2791 N   0  0  0  0  0  0  0  0  0  0  0  0
   20.9736    8.0017   31.6536 C   0  0  0  0  0  0  0  0  0  0  0  0
   19.8665    8.1461   32.4779 C   0  0  0  0  0  0  0  0  0  0  0  0
   19.5200    9.4177   32.8981 C   0  0  0  0  0  0  0  0  0  0  0  0
   18.3829    9.4988   33.6931 N   0  0  0  0  0  0  0  0  0  0  0  0
   20.2909   10.5235   32.5051 C   0  0  0  0  0  0  0  0  0  0  0  0
   19.9670   11.8935   32.8853 C   0  0  0  0  0  0  0  0  0  0  0  0
   19.7174   12.9843   33.1812 N   0  0  0  0  0  0  0  0  0  0  0  0
   21.4331    6.8194   31.1098 N   0  0  0  0  0  0  0  0  0  0  0  0
   20.8527    5.6189   31.0281 C   0  0  0  0  0  0  0  0  0  0  0  0
   19.7272    5.3573   31.4476 O   0  0  0  0  0  0  0  0  0  0  0  0
   21.6390    4.5479   30.2799 C   0  0  0  0  0  0  0  0  0  0  0  0
   23.0290    4.2861   30.8549 C   0  0  0  0  0  0  0  0  0  0  0  0
   24.1071    5.1197   30.5266 C   0  0  0  0  0  0  0  0  0  0  0  0
   23.8494    6.2028   29.7043 O   0  0  0  0  0  0  0  0  0  0  0  0
   24.8536    7.1989   29.5184 C   0  0  0  0  0  0  0  0  0  0  0  0
   25.3718    4.8226   31.0461 C   0  0  0  0  0  0  0  0  0  0  0  0
   25.5645    3.7381   31.9139 C   0  0  0  0  0  0  0  0  0  0  0  0
   24.4775    2.9179   32.2550 C   0  0  0  0  0  0  0  0  0  0  0  0
   23.2164    3.1999   31.7130 C   0  0  0  0  0  0  0  0  0  0  0  0
   24.7079    1.8722   33.1347 O   0  0  0  0  0  0  0  0  0  0  0  0
   23.7954    0.7759   33.1653 C   0  0  0  0  0  0  0  0  0  0  0  0
   26.8105    3.4129   32.4986 N   0  0  0  0  0  0  0  0  0  0  0  0
   28.0304    3.9580   32.3626 C   0  0  0  0  0  0  0  0  0  0  0  0
   28.3090    4.8809   31.6038 O   0  0  0  0  0  0  0  0  0  0  0  0
   29.1268    3.3864   33.2444 C   0  0  0  0  0  0  0  0  0  0  0  0
   24.9324   12.2341   29.5696 H   0  0  0  0  0  0  0  0  0  0  0  0
   23.3951   13.1399   29.7761 H   0  0  0  0  0  0  0  0  0  0  0  0
   24.4166   12.7665   31.2057 H   0  0  0  0  0  0  0  0  0  0  0  0
   22.9596   10.7050   29.4513 H   0  0  0  0  0  0  0  0  0  0  0  0
   23.9811   10.3316   30.8809 H   0  0  0  0  0  0  0  0  0  0  0  0
   19.0018    7.7360   31.9357 H   0  0  0  0  0  0  0  0  0  0  0  0
   20.0523    7.5449   33.3801 H   0  0  0  0  0  0  0  0  0  0  0  0
   18.1753   10.4413   33.9549 H   0  0  0  0  0  0  0  0  0  0  0  0
   22.3494    6.8695   30.7124 H   0  0  0  0  0  0  0  0  0  0  0  0
   21.0667    3.6092   30.3162 H   0  0  0  0  0  0  0  0  0  0  0  0
   21.7517    4.8684   29.2337 H   0  0  0  0  0  0  0  0  0  0  0  0
   24.4769    7.9778   28.8391 H   0  0  0  0  0  0  0  0  0  0  0  0
   25.1064    7.6502   30.4892 H   0  0  0  0  0  0  0  0  0  0  0  0
   25.7522    6.7368   29.0837 H   0  0  0  0  0  0  0  0  0  0  0  0
   26.0313    4.6517   30.1824 H   0  0  0  0  0  0  0  0  0  0  0  0
   25.7041    5.7195   31.5894 H   0  0  0  0  0  0  0  0  0  0  0  0
   22.3768    2.5680   31.9624 H   0  0  0  0  0  0  0  0  0  0  0  0
   24.1278    0.0422   33.9145 H   0  0  0  0  0  0  0  0  0  0  0  0
   22.7922    1.1413   33.4301 H   0  0  0  0  0  0  0  0  0  0  0  0
   23.7622    0.2989   32.1747 H   0  0  0  0  0  0  0  0  0  0  0  0
   30.0677    3.9238   33.0552 H   0  0  0  0  0  0  0  0  0  0  0  0
   28.8447    3.5020   34.3013 H   0  0  0  0  0  0  0  0  0  0  0  0
   29.2620    2.3190   33.0156 H   0  0  0  0  0  0  0  0  0  0  0  0
  1  2  1  0  0  0  0
  2  3  1  0  0  0  0
  3  4  1  0  0  0  0
  4 10  2  0  0  0  0
  4  5  1  0  0  0  0
  5  6  2  0  0  0  0
  6  7  1  0  0  0  0
  6 13  1  0  0  0  0
  7  8  1  0  0  0  0
  8  9  2  0  0  0  0
  8 10  1  0  0  0  0
 10 11  1  0  0  0  0
 11 12  3  0  0  0  0
 13 14  1  0  0  0  0
 14 15  2  0  0  0  0
 14 16  1  0  0  0  0
 16 17  1  0  0  0  0
 17 24  1  0  0  0  0
 17 18  2  0  0  0  0
 18 19  1  0  0  0  0
 18 21  1  0  0  0  0
 19 20  1  0  0  0  0
 21 22  1  0  0  0  0
 22 23  1  0  0  0  0
 22 27  2  0  0  0  0
 23 24  2  0  0  0  0
 23 25  1  0  0  0  0
 25 26  1  0  0  0  0
 27 28  1  0  0  0  0
 28 29  2  0  0  0  0
 28 30  1  0  0  0  0
  1 31  1  0  0  0  0
  1 32  1  0  0  0  0
  1 33  1  0  0  0  0
  2 34  1  0  0  0  0
  2 35  1  0  0  0  0
  7 36  1  0  0  0  0
  7 37  1  0  0  0  0
  9 38  1  0  0  0  0
 13 39  1  0  0  0  0
 16 40  1  0  0  0  0
 16 41  1  0  0  0  0
 20 42  1  0  0  0  0
 20 43  1  0  0  0  0
 20 44  1  0  0  0  0
 21 45  1  0  0  0  0
 21 46  1  0  0  0  0
 24 47  1  0  0  0  0
 26 48  1  0  0  0  0
 26 49  1  0  0  0  0
 26 50  1  0  0  0  0
 30 51  1  0  0  0  0
 30 52  1  0  0  0  0
 30 53  1  0  0  0  0
M  END
> <i_m_stars>
0

> <r_user_dG.exp>
-10.141692

$$$$
18637-1
  -OEChem-05192314073D
 Structure written by MMmdl.
 53 54  0     1  0  0  0  0  0999 V2000
   24.0679   12.3974   30.2299 C   0  0  0  0  0  0  0  0  0  0  0  0
   23.3159   11.0783   30.4227 C   0  0  0  0  0  0  0  0  0  0  0  0
   22.2074   11.3318   31.2810 O   0  0  0  0  0  0  0  0  0  0  0  0
   21.4078   10.2815   31.6977 C   0  0  0  0  0  0  0  0  0  0  0  0
   21.7477    9.0318   31.2791 N   0  0  0  0  0  0  0  0  0  0  0  0
   20.9736    8.0017   31.6536 C   0  0  0  0  0  0  0  0  0  0  0  0
   19.8665    8.1461   32.4779 C   0  0  0  0  0  0  0  0  0  0  0  0
   19.5200    9.4177   32.8981 C   0  0  0  0  0  0  0  0  0  0  0  0
   18.3829    9.4988   33.6931 N   0  0  0  0  0  0  0  0  0  0  0  0
   20.2909   10.5235   32.5051 C   0  0  3  0  0  0  0  0  0  0  0  0
   19.9670   11.8935   32.8853 C   0  0  0  0  0  0  0  0  0  0  0  0
   19.7174   12.9843   33.1812 N   0  0  0  0  0  0  0  0  0  0  0  0
   21.4331    6.8194   31.1098 N   0  0  0  0  0  0  0  0  0  0  0  0
   20.8527    5.6189   31.0281 C   0  0  0  0  0  0  0  0  0  0  0  0
   19.7272    5.3573   31.4476 O   0  0  0  0  0  0  0  0  0  0  0  0
   21.6390    4.5479   30.2799 C   0  0  0  0  0  0  0  0  0  0  0  0
   23.0290    4.2861   30.8549 C   0  0  3  0  0  0  0  0  0  0  0  0
   24.1071    5.1197   30.5266 C   0  0  0  0  0  0  0  0  0  0  0  0
   23.8494    6.2028   29.7043 O   0  0  0  0  0  0  0  0  0  0  0  0
   24.8536    7.1989   29.5184 C   0  0  0  0  0  0  0  0  0  0  0  0
   25.3718    4.8226   31.0461 C   0  0  0  0  0  0  0  0  0  0  0  0
   25.5645    3.7381   31.9139 C   0  0  0  0  0  0  0  0  0  0  0  0
   24.4775    2.9179   32.2550 C   0  0  0  0  0  0  0  0  0  0  0  0
   23.2164    3.1999   31.7130 C   0  0  0  0  0  0  0  0  0  0  0  0
   24.7079    1.8722   33.1347 O   0  0  0  0  0  0  0  0  0  0  0  0
   23.7954    0.7759   33.1653 C   0  0  0  0  0  0  0  0  0  0  0  0
   26.8105    3.4129   32.4986 N   0  0  0  0  0  0  0  0  0  0  0  0
   28.0304    3.9580   32.3626 C   0  0  0  0  0  0  0  0  0  0  0  0
   28.3090    4.8809   31.6038 O   0  0  0  0  0  0  0  0  0  0  0  0
   29.1268    3.3864   33.2444 C   0  0  0  0  0  0  0  0  0  0  0  0
   24.9324   12.2341   29.5696 H   0  0  0  0  0  0  0  0  0  0  0  0
   23.3951   13.1399   29.7761 H   0  0  0  0  0  0  0  0  0  0  0  0
   24.4166   12.7665   31.2057 H   0  0  0  0  0  0  0  0  0  0  0  0
   22.9596   10.7050   29.4513 H   0  0  0  0  0  0  0  0  0  0  0  0
   23.9811   10.3316   30.8809 H   0  0  0  0  0  0  0  0  0  0  0  0
   19.2892    7.2862   32.7840 H   0  0  0  0  0  0  0  0  0  0  0  0
   18.2177   10.4529   33.9431 H   0  0  0  0  0  0  0  0  0  0  0  0
   17.5962    9.1461   33.1864 H   0  0  0  0  0  0  0  0  0  0  0  0
   20.9130   10.4158   33.4059 H   0  0  0  0  0  0  0  0  0  0  0  0
   21.0667    3.6092   30.3162 H   0  0  0  0  0  0  0  0  0  0  0  0
   21.7517    4.8684   29.2337 H   0  0  0  0  0  0  0  0  0  0  0  0
   22.7942    4.9278   31.7169 H   0  0  0  0  0  0  0  0  0  0  0  0
   24.4769    7.9778   28.8391 H   0  0  0  0  0  0  0  0  0  0  0  0
   25.1064    7.6502   30.4892 H   0  0  0  0  0  0  0  0  0  0  0  0
   25.7522    6.7368   29.0837 H   0  0  0  0  0  0  0  0  0  0  0  0
   26.2151    5.4399   30.7737 H   0  0  0  0  0  0  0  0  0  0  0  0
   22.3768    2.5680   31.9624 H   0  0  0  0  0  0  0  0  0  0  0  0
   24.1278    0.0422   33.9145 H   0  0  0  0  0  0  0  0  0  0  0  0
   22.7922    1.1413   33.4301 H   0  0  0  0  0  0  0  0  0  0  0  0
   23.7622    0.2989   32.1747 H   0  0  0  0  0  0  0  0  0  0  0  0
   30.0677    3.9238   33.0552 H   0  0  0  0  0  0  0  0  0  0  0  0
   28.8447    3.5020   34.3013 H   0  0  0  0  0  0  0  0  0  0  0  0
   29.2620    2.3190   33.0156 H   0  0  0  0  0  0  0  0  0  0  0  0
  1  2  1  0  0  0  0
  2  3  1  0  0  0  0
  3  4  1  0  0  0  0
  4 10  1  0  0  0  0
  4  5  2  0  0  0  0
  5  6  1  0  0  0  0
  6  7  1  0  0  0  0
  6 13  2  0  0  0  0
  7  8  2  0  0  0  0
  8  9  1  0  0  0  0
  8 10  1  0  0  0  0
 10 11  1  0  0  0  0
 11 12  3  0  0  0  0
 13 14  1  0  0  0  0
 14 15  2  0  0  0  0
 14 16  1  0  0  0  0
 16 17  1  0  0  0  0
 17 24  1  0  0  0  0
 17 18  1  0  0  0  0
 18 19  1  0  0  0  0
 18 21  2  0  0  0  0
 19 20  1  0  0  0  0
 21 22  1  0  0  0  0
 22 23  1  0  0  0  0
 22 27  2  0  0  0  0
 23 24  2  0  0  0  0
 23 25  1  0  0  0  0
 25 26  1  0  0  0  0
 27 28  1  0  0  0  0
 28 29  2  0  0  0  0
 28 30  1  0  0  0  0
  1 31  1  0  0  0  0
  1 32  1  0  0  0  0
  1 33  1  0  0  0  0
  2 34  1  0  0  0  0
  2 35  1  0  0  0  0
  7 36  1  0  0  0  0
  9 37  1  0  0  0  0
  9 38  1  0  0  0  0
 10 39  1  0  0  0  0
 16 40  1  0  0  0  0
 16 41  1  0  0  0  0
 17 42  1  0  0  0  0
 20 43  1  0  0  0  0
 20 44  1  0  0  0  0
 20 45  1  0  0  0  0
 21 46  1  0  0  0  0
 24 47  1  0  0  0  0
 26 48  1  0  0  0  0
 26 49  1  0  0  0  0
 26 50  1  0  0  0  0
 30 51  1  0  0  0  0
 30 52  1  0  0  0  0
 30 53  1  0  0  0  0
M  END
> <i_m_stars>
0

> <r_user_dG.exp>
-10.141692

$$$$
18637-1
  -OEChem-05192314073D
 Structure written by MMmdl.
 53 54  0     1  0  0  0  0  0999 V2000
   24.0679   12.3974   30.2299 C   0  0  0  0  0  0  0  0  0  0  0  0
   23.3159   11.0783   30.4227 C   0  0  0  0  0  0  0  0  0  0  0  0
   22.2074   11.3318   31.2810 O   0  0  0  0  0  0  0  0  0  0  0  0
   21.4078   10.2815   31.6977 C   0  0  0  0  0  0  0  0  0  0  0  0
   21.7477    9.0318   31.2791 N   0  0  0  0  0  0  0  0  0  0  0  0
   20.9736    8.0017   31.6536 C   0  0  0  0  0  0  0  0  0  0  0  0
   19.8665    8.1461   32.4779 C   0  0  0  0  0  0  0  0  0  0  0  0
   19.5200    9.4177   32.8981 C   0  0  0  0  0  0  0  0  0  0  0  0
   18.3829    9.4988   33.6931 N   0  0  0  0  0  0  0  0  0  0  0  0
   20.2909   10.5235   32.5051 C   0  0  3  0  0  0  0  0  0  0  0  0
   19.9670   11.8935   32.8853 C   0  0  0  0  0  0  0  0  0  0  0  0
   19.7174   12.9843   33.1812 N   0  0  0  0  0  0  0  0  0  0  0  0
   21.4331    6.8194   31.1098 N   0  0  0  0  0  0  0  0  0  0  0  0
   20.8527    5.6189   31.0281 C   0  0  0  0  0  0  0  0  0  0  0  0
   19.7272    5.3573   31.4476 O   0  0  0  0  0  0  0  0  0  0  0  0
   21.6390    4.5479   30.2799 C   0  0  0  0  0  0  0  0  0  0  0  0
   23.0290    4.2861   30.8549 C   0  0  0  0  0  0  0  0  0  0  0  0
   24.1071    5.1197   30.5266 C   0  0  0  0  0  0  0  0  0  0  0  0
   23.8494    6.2028   29.7043 O   0  0  0  0  0  0  0  0  0  0  0  0
   24.8536    7.1989   29.5184 C   0  0  0  0  0  0  0  0  0  0  0  0
   25.3718    4.8226   31.0461 C   0  0  0  0  0  0  0  0  0  0  0  0
   25.5645    3.7381   31.9139 C   0  0  0  0  0  0  0  0  0  0  0  0
   24.4775    2.9179   32.2550 C   0  0  3  0  0  0  0  0  0  0  0  0
   23.2164    3.1999   31.7130 C   0  0  0  0  0  0  0  0  0  0  0  0
   24.7079    1.8722   33.1347 O   0  0  0  0  0  0  0  0  0  0  0  0
   23.7954    0.7759   33.1653 C   0  0  0  0  0  0  0  0  0  0  0  0
   26.8105    3.4129   32.4986 N   0  0  0  0  0  0  0  0  0  0  0  0
   28.0304    3.9580   32.3626 C   0  0  0  0  0  0  0  0  0  0  0  0
   28.3090    4.8809   31.6038 O   0  0  0  0  0  0  0  0  0  0  0  0
   29.1268    3.3864   33.2444 C   0  0  0  0  0  0  0  0  0  0  0  0
   24.9324   12.2341   29.5696 H   0  0  0  0  0  0  0  0  0  0  0  0
   23.3951   13.1399   29.7761 H   0  0  0  0  0  0  0  0  0  0  0  0
   24.4166   12.7665   31.2057 H   0  0  0  0  0  0  0  0  0  0  0  0
   22.9596   10.7050   29.4513 H   0  0  0  0  0  0  0  0  0  0  0  0
   23.9811   10.3316   30.8809 H   0  0  0  0  0  0  0  0  0  0  0  0
   19.2892    7.2862   32.7840 H   0  0  0  0  0  0  0  0  0  0  0  0
   18.2177   10.4529   33.9431 H   0  0  0  0  0  0  0  0  0  0  0  0
   17.5962    9.1461   33.1864 H   0  0  0  0  0  0  0  0  0  0  0  0
   20.9130   10.4158   33.4059 H   0  0  0  0  0  0  0  0  0  0  0  0
   21.0667    3.6092   30.3162 H   0  0  0  0  0  0  0  0  0  0  0  0
   21.7517    4.8684   29.2337 H   0  0  0  0  0  0  0  0  0  0  0  0
   24.4769    7.9778   28.8391 H   0  0  0  0  0  0  0  0  0  0  0  0
   25.1064    7.6502   30.4892 H   0  0  0  0  0  0  0  0  0  0  0  0
   25.7522    6.7368   29.0837 H   0  0  0  0  0  0  0  0  0  0  0  0
   26.2151    5.4399   30.7737 H   0  0  0  0  0  0  0  0  0  0  0  0
   24.7015    2.2581   31.4038 H   0  0  0  0  0  0  0  0  0  0  0  0
   22.3768    2.5680   31.9624 H   0  0  0  0  0  0  0  0  0  0  0  0
   24.1278    0.0422   33.9145 H   0  0  0  0  0  0  0  0  0  0  0  0
   22.7922    1.1413   33.4301 H   0  0  0  0  0  0  0  0  0  0  0  0
   23.7622    0.2989   32.1747 H   0  0  0  0  0  0  0  0  0  0  0  0
   30.0677    3.9238   33.0552 H   0  0  0  0  0  0  0  0  0  0  0  0
   28.8447    3.5020   34.3013 H   0  0  0  0  0  0  0  0  0  0  0  0
   29.2620    2.3190   33.0156 H   0  0  0  0  0  0  0  0  0  0  0  0
  1  2  1  0  0  0  0
  2  3  1  0  0  0  0
  3  4  1  0  0  0  0
  4 10  1  0  0  0  0
  4  5  2  0  0  0  0
  5  6  1  0  0  0  0
  6  7  1  0  0  0  0
  6 13  2  0  0  0  0
  7  8  2  0  0  0  0
  8  9  1  0  0  0  0
  8 10  1  0  0  0  0
 10 11  1  0  0  0  0
 11 12  3  0  0  0  0
 13 14  1  0  0  0  0
 14 15  2  0  0  0  0
 14 16  1  0  0  0  0
 16 17  1  0  0  0  0
 17 24  2  0  0  0  0
 17 18  1  0  0  0  0
 18 19  1  0  0  0  0
 18 21  2  0  0  0  0
 19 20  1  0  0  0  0
 21 22  1  0  0  0  0
 22 23  1  0  0  0  0
 22 27  2  0  0  0  0
 23 24  1  0  0  0  0
 23 25  1  0  0  0  0
 25 26  1  0  0  0  0
 27 28  1  0  0  0  0
 28 29  2  0  0  0  0
 28 30  1  0  0  0  0
  1 31  1  0  0  0  0
  1 32  1  0  0  0  0
  1 33  1  0  0  0  0
  2 34  1  0  0  0  0
  2 35  1  0  0  0  0
  7 36  1  0  0  0  0
  9 37  1  0  0  0  0
  9 38  1  0  0  0  0
 10 39  1  0  0  0  0
 16 40  1  0  0  0  0
 16 41  1  0  0  0  0
 20 42  1  0  0  0  0
 20 43  1  0  0  0  0
 20 44  1  0  0  0  0
 21 45  1  0  0  0  0
 23 46  1  0  0  0  0
 24 47  1  0  0  0  0
 26 48  1  0  0  0  0
 26 49  1  0  0  0  0
 26 50  1  0  0  0  0
 30 51  1  0  0  0  0
 30 52  1  0  0  0  0
 30 53  1  0  0  0  0
M  END
> <i_m_stars>
0

> <r_user_dG.exp>
-10.141692

$$$$
18637-1
  -OEChem-05192314073D
 Structure written by MMmdl.
 53 54  0     1  0  0  0  0  0999 V2000
   24.0679   12.3974   30.2299 C   0  0  0  0  0  0  0  0  0  0  0  0
   23.3159   11.0783   30.4227 C   0  0  0  0  0  0  0  0  0  0  0  0
   22.2074   11.3318   31.2810 O   0  0  0  0  0  0  0  0  0  0  0  0
   21.4078   10.2815   31.6977 C   0  0  0  0  0  0  0  0  0  0  0  0
   21.7477    9.0318   31.2791 N   0  0  0  0  0  0  0  0  0  0  0  0
   20.9736    8.0017   31.6536 C   0  0  0  0  0  0  0  0  0  0  0  0
   19.8665    8.1461   32.4779 C   0  0  0  0  0  0  0  0  0  0  0  0
   19.5200    9.4177   32.8981 C   0  0  0  0  0  0  0  0  0  0  0  0
   18.3829    9.4988   33.6931 N   0  0  0  0  0  0  0  0  0  0  0  0
   20.2909   10.5235   32.5051 C   0  0  3  0  0  0  0  0  0  0  0  0
   19.9670   11.8935   32.8853 C   0  0  0  0  0  0  0  0  0  0  0  0
   19.7174   12.9843   33.1812 N   0  0  0  0  0  0  0  0  0  0  0  0
   21.4331    6.8194   31.1098 N   0  0  0  0  0  0  0  0  0  0  0  0
   20.8527    5.6189   31.0281 C   0  0  0  0  0  0  0  0  0  0  0  0
   19.7272    5.3573   31.4476 O   0  0  0  0  0  0  0  0  0  0  0  0
   21.6390    4.5479   30.2799 C   0  0  0  0  0  0  0  0  0  0  0  0
   23.0290    4.2861   30.8549 C   0  0  0  0  0  0  0  0  0  0  0  0
   24.1071    5.1197   30.5266 C   0  0  0  0  0  0  0  0  0  0  0  0
   23.8494    6.2028   29.7043 O   0  0  0  0  0  0  0  0  0  0  0  0
   24.8536    7.1989   29.5184 C   0  0  0  0  0  0  0  0  0  0  0  0
   25.3718    4.8226   31.0461 C   0  0  0  0  0  0  0  0  0  0  0  0
   25.5645    3.7381   31.9139 C   0  0  0  0  0  0  0  0  0  0  0  0
   24.4775    2.9179   32.2550 C   0  0  0  0  0  0  0  0  0  0  0  0
   23.2164    3.1999   31.7130 C   0  0  0  0  0  0  0  0  0  0  0  0
   24.7079    1.8722   33.1347 O   0  0  0  0  0  0  0  0  0  0  0  0
   23.7954    0.7759   33.1653 C   0  0  0  0  0  0  0  0  0  0  0  0
   26.8105    3.4129   32.4986 N   0  0  0  0  0  0  0  0  0  0  0  0
   28.0304    3.9580   32.3626 C   0  0  0  0  0  0  0  0  0  0  0  0
   28.3090    4.8809   31.6038 O   0  0  0  0  0  0  0  0  0  0  0  0
   29.1268    3.3864   33.2444 C   0  0  0  0  0  0  0  0  0  0  0  0
   24.9324   12.2341   29.5696 H   0  0  0  0  0  0  0  0  0  0  0  0
   23.3951   13.1399   29.7761 H   0  0  0  0  0  0  0  0  0  0  0  0
   24.4166   12.7665   31.2057 H   0  0  0  0  0  0  0  0  0  0  0  0
   22.9596   10.7050   29.4513 H   0  0  0  0  0  0  0  0  0  0  0  0
   23.9811   10.3316   30.8809 H   0  0  0  0  0  0  0  0  0  0  0  0
   19.2892    7.2862   32.7840 H   0  0  0  0  0  0  0  0  0  0  0  0
   18.2177   10.4529   33.9431 H   0  0  0  0  0  0  0  0  0  0  0  0
   17.5962    9.1461   33.1864 H   0  0  0  0  0  0  0  0  0  0  0  0
   20.9130   10.4158   33.4059 H   0  0  0  0  0  0  0  0  0  0  0  0
   21.0667    3.6092   30.3162 H   0  0  0  0  0  0  0  0  0  0  0  0
   21.7517    4.8684   29.2337 H   0  0  0  0  0  0  0  0  0  0  0  0
   24.4769    7.9778   28.8391 H   0  0  0  0  0  0  0  0  0  0  0  0
   25.1064    7.6502   30.4892 H   0  0  0  0  0  0  0  0  0  0  0  0
   25.7522    6.7368   29.0837 H   0  0  0  0  0  0  0  0  0  0  0  0
   26.0313    4.6517   30.1824 H   0  0  0  0  0  0  0  0  0  0  0  0
   25.7041    5.7195   31.5894 H   0  0  0  0  0  0  0  0  0  0  0  0
   22.3768    2.5680   31.9624 H   0  0  0  0  0  0  0  0  0  0  0  0
   24.1278    0.0422   33.9145 H   0  0  0  0  0  0  0  0  0  0  0  0
   22.7922    1.1413   33.4301 H   0  0  0  0  0  0  0  0  0  0  0  0
   23.7622    0.2989   32.1747 H   0  0  0  0  0  0  0  0  0  0  0  0
   30.0677    3.9238   33.0552 H   0  0  0  0  0  0  0  0  0  0  0  0
   28.8447    3.5020   34.3013 H   0  0  0  0  0  0  0  0  0  0  0  0
   29.2620    2.3190   33.0156 H   0  0  0  0  0  0  0  0  0  0  0  0
  1  2  1  0  0  0  0
  2  3  1  0  0  0  0
  3  4  1  0  0  0  0
  4 10  1  0  0  0  0
  4  5  2  0  0  0  0
  5  6  1  0  0  0  0
  6  7  1  0  0  0  0
  6 13  2  0  0  0  0
  7  8  2  0  0  0  0
  8  9  1  0  0  0  0
  8 10  1  0  0  0  0
 10 11  1  0  0  0  0
 11 12  3  0  0  0  0
 13 14  1  0  0  0  0
 14 15  2  0  0  0  0
 14 16  1  0  0  0  0
 16 17  1  0  0  0  0
 17 24  1  0  0  0  0
 17 18  2  0  0  0  0
 18 19  1  0  0  0  0
 18 21  1  0  0  0  0
 19 20  1  0  0  0  0
 21 22  1  0  0  0  0
 22 23  1  0  0  0  0
 22 27  2  0  0  0  0
 23 24  2  0  0  0  0
 23 25  1  0  0  0  0
 25 26  1  0  0  0  0
 27 28  1  0  0  0  0
 28 29  2  0  0  0  0
 28 30  1  0  0  0  0
  1 31  1  0  0  0  0
  1 32  1  0  0  0  0
  1 33  1  0  0  0  0
  2 34  1  0  0  0  0
  2 35  1  0  0  0  0
  7 36  1  0  0  0  0
  9 37  1  0  0  0  0
  9 38  1  0  0  0  0
 10 39  1  0  0  0  0
 16 40  1  0  0  0  0
 16 41  1  0  0  0  0
 20 42  1  0  0  0  0
 20 43  1  0  0  0  0
 20 44  1  0  0  0  0
 21 45  1  0  0  0  0
 21 46  1  0  0  0  0
 24 47  1  0  0  0  0
 26 48  1  0  0  0  0
 26 49  1  0  0  0  0
 26 50  1  0  0  0  0
 30 51  1  0  0  0  0
 30 52  1  0  0  0  0
 30 53  1  0  0  0  0
M  END
> <i_m_stars>
0

> <r_user_dG.exp>
-10.141692

$$$$
18637-1
  -OEChem-05192314073D
 Structure written by MMmdl.
 53 54  0     1  0  0  0  0  0999 V2000
   24.0679   12.3974   30.2299 C   0  0  0  0  0  0  0  0  0  0  0  0
   23.3159   11.0783   30.4227 C   0  0  0  0  0  0  0  0  0  0  0  0
   22.2074   11.3318   31.2810 O   0  0  0  0  0  0  0  0  0  0  0  0
   21.4078   10.2815   31.6977 C   0  0  0  0  0  0  0  0  0  0  0  0
   21.7477    9.0318   31.2791 N   0  0  0  0  0  0  0  0  0  0  0  0
   20.9736    8.0017   31.6536 C   0  0  0  0  0  0  0  0  0  0  0  0
   19.8665    8.1461   32.4779 C   0  0  0  0  0  0  0  0  0  0  0  0
   19.5200    9.4177   32.8981 C   0  0  0  0  0  0  0  0  0  0  0  0
   18.3829    9.4988   33.6931 N   0  0  0  0  0  0  0  0  0  0  0  0
   20.2909   10.5235   32.5051 C   0  0  0  0  0  0  0  0  0  0  0  0
   19.9670   11.8935   32.8853 C   0  0  0  0  0  0  0  0  0  0  0  0
   19.7174   12.9843   33.1812 N   0  0  0  0  0  0  0  0  0  0  0  0
   21.4331    6.8194   31.1098 N   0  0  0  0  0  0  0  0  0  0  0  0
   20.8527    5.6189   31.0281 C   0  0  0  0  0  0  0  0  0  0  0  0
   19.7272    5.3573   31.4476 O   0  0  0  0  0  0  0  0  0  0  0  0
   21.6390    4.5479   30.2799 C   0  0  0  0  0  0  0  0  0  0  0  0
   23.0290    4.2861   30.8549 C   0  0  3  0  0  0  0  0  0  0  0  0
   24.1071    5.1197   30.5266 C   0  0  0  0  0  0  0  0  0  0  0  0
   23.8494    6.2028   29.7043 O   0  0  0  0  0  0  0  0  0  0  0  0
   24.8536    7.1989   29.5184 C   0  0  0  0  0  0  0  0  0  0  0  0
   25.3718    4.8226   31.0461 C   0  0  0  0  0  0  0  0  0  0  0  0
   25.5645    3.7381   31.9139 C   0  0  0  0  0  0  0  0  0  0  0  0
   24.4775    2.9179   32.2550 C   0  0  0  0  0  0  0  0  0  0  0  0
   23.2164    3.1999   31.7130 C   0  0  0  0  0  0  0  0  0  0  0  0
   24.7079    1.8722   33.1347 O   0  0  0  0  0  0  0  0  0  0  0  0
   23.7954    0.7759   33.1653 C   0  0  0  0  0  0  0  0  0  0  0  0
   26.8105    3.4129   32.4986 N   0  0  0  0  0  0  0  0  0  0  0  0
   28.0304    3.9580   32.3626 C   0  0  0  0  0  0  0  0  0  0  0  0
   28.3090    4.8809   31.6038 O   0  0  0  0  0  0  0  0  0  0  0  0
   29.1268    3.3864   33.2444 C   0  0  0  0  0  0  0  0  0  0  0  0
   24.9324   12.2341   29.5696 H   0  0  0  0  0  0  0  0  0  0  0  0
   23.3951   13.1399   29.7761 H   0  0  0  0  0  0  0  0  0  0  0  0
   24.4166   12.7665   31.2057 H   0  0  0  0  0  0  0  0  0  0  0  0
   22.9596   10.7050   29.4513 H   0  0  0  0  0  0  0  0  0  0  0  0
   23.9811   10.3316   30.8809 H   0  0  0  0  0  0  0  0  0  0  0  0
   19.0018    7.7360   31.9357 H   0  0  0  0  0  0  0  0  0  0  0  0
   20.0523    7.5449   33.3801 H   0  0  0  0  0  0  0  0  0  0  0  0
   18.2177   10.4529   33.9431 H   0  0  0  0  0  0  0  0  0  0  0  0
   17.5962    9.1461   33.1864 H   0  0  0  0  0  0  0  0  0  0  0  0
   21.0667    3.6092   30.3162 H   0  0  0  0  0  0  0  0  0  0  0  0
   21.7517    4.8684   29.2337 H   0  0  0  0  0  0  0  0  0  0  0  0
   22.7942    4.9278   31.7169 H   0  0  0  0  0  0  0  0  0  0  0  0
   24.4769    7.9778   28.8391 H   0  0  0  0  0  0  0  0  0  0  0  0
   25.1064    7.6502   30.4892 H   0  0  0  0  0  0  0  0  0  0  0  0
   25.7522    6.7368   29.0837 H   0  0  0  0  0  0  0  0  0  0  0  0
   26.2151    5.4399   30.7737 H   0  0  0  0  0  0  0  0  0  0  0  0
   22.3768    2.5680   31.9624 H   0  0  0  0  0  0  0  0  0  0  0  0
   24.1278    0.0422   33.9145 H   0  0  0  0  0  0  0  0  0  0  0  0
   22.7922    1.1413   33.4301 H   0  0  0  0  0  0  0  0  0  0  0  0
   23.7622    0.2989   32.1747 H   0  0  0  0  0  0  0  0  0  0  0  0
   30.0677    3.9238   33.0552 H   0  0  0  0  0  0  0  0  0  0  0  0
   28.8447    3.5020   34.3013 H   0  0  0  0  0  0  0  0  0  0  0  0
   29.2620    2.3190   33.0156 H   0  0  0  0  0  0  0  0  0  0  0  0
  1  2  1  0  0  0  0
  2  3  1  0  0  0  0
  3  4  1  0  0  0  0
  4 10  1  0  0  0  0
  4  5  2  0  0  0  0
  5  6  1  0  0  0  0
  6  7  1  0  0  0  0
  6 13  2  0  0  0  0
  7  8  1  0  0  0  0
  8  9  1  0  0  0  0
  8 10  2  0  0  0  0
 10 11  1  0  0  0  0
 11 12  3  0  0  0  0
 13 14  1  0  0  0  0
 14 15  2  0  0  0  0
 14 16  1  0  0  0  0
 16 17  1  0  0  0  0
 17 24  1  0  0  0  0
 17 18  1  0  0  0  0
 18 19  1  0  0  0  0
 18 21  2  0  0  0  0
 19 20  1  0  0  0  0
 21 22  1  0  0  0  0
 22 23  1  0  0  0  0
 22 27  2  0  0  0  0
 23 24  2  0  0  0  0
 23 25  1  0  0  0  0
 25 26  1  0  0  0  0
 27 28  1  0  0  0  0
 28 29  2  0  0  0  0
 28 30  1  0  0  0  0
  1 31  1  0  0  0  0
  1 32  1  0  0  0  0
  1 33  1  0  0  0  0
  2 34  1  0  0  0  0
  2 35  1  0  0  0  0
  7 36  1  0  0  0  0
  7 37  1  0  0  0  0
  9 38  1  0  0  0  0
  9 39  1  0  0  0  0
 16 40  1  0  0  0  0
 16 41  1  0  0  0  0
 17 42  1  0  0  0  0
 20 43  1  0  0  0  0
 20 44  1  0  0  0  0
 20 45  1  0  0  0  0
 21 46  1  0  0  0  0
 24 47  1  0  0  0  0
 26 48  1  0  0  0  0
 26 49  1  0  0  0  0
 26 50  1  0  0  0  0
 30 51  1  0  0  0  0
 30 52  1  0  0  0  0
 30 53  1  0  0  0  0
M  END
> <i_m_stars>
0

> <r_user_dG.exp>
-10.141692

$$$$
18637-1
  -OEChem-05192314073D
 Structure written by MMmdl.
 53 54  0     1  0  0  0  0  0999 V2000
   24.0679   12.3974   30.2299 C   0  0  0  0  0  0  0  0  0  0  0  0
   23.3159   11.0783   30.4227 C   0  0  0  0  0  0  0  0  0  0  0  0
   22.2074   11.3318   31.2810 O   0  0  0  0  0  0  0  0  0  0  0  0
   21.4078   10.2815   31.6977 C   0  0  0  0  0  0  0  0  0  0  0  0
   21.7477    9.0318   31.2791 N   0  0  0  0  0  0  0  0  0  0  0  0
   20.9736    8.0017   31.6536 C   0  0  0  0  0  0  0  0  0  0  0  0
   19.8665    8.1461   32.4779 C   0  0  0  0  0  0  0  0  0  0  0  0
   19.5200    9.4177   32.8981 C   0  0  0  0  0  0  0  0  0  0  0  0
   18.3829    9.4988   33.6931 N   0  0  0  0  0  0  0  0  0  0  0  0
   20.2909   10.5235   32.5051 C   0  0  0  0  0  0  0  0  0  0  0  0
   19.9670   11.8935   32.8853 C   0  0  0  0  0  0  0  0  0  0  0  0
   19.7174   12.9843   33.1812 N   0  0  0  0  0  0  0  0  0  0  0  0
   21.4331    6.8194   31.1098 N   0  0  0  0  0  0  0  0  0  0  0  0
   20.8527    5.6189   31.0281 C   0  0  0  0  0  0  0  0  0  0  0  0
   19.7272    5.3573   31.4476 O   0  0  0  0  0  0  0  0  0  0  0  0
   21.6390    4.5479   30.2799 C   0  0  0  0  0  0  0  0  0  0  0  0
   23.0290    4.2861   30.8549 C   0  0  0  0  0  0  0  0  0  0  0  0
   24.1071    5.1197   30.5266 C   0  0  0  0  0  0  0  0  0  0  0  0
   23.8494    6.2028   29.7043 O   0  0  0  0  0  0  0  0  0  0  0  0
   24.8536    7.1989   29.5184 C   0  0  0  0  0  0  0  0  0  0  0  0
   25.3718    4.8226   31.0461 C   0  0  0  0  0  0  0  0  0  0  0  0
   25.5645    3.7381   31.9139 C   0  0  0  0  0  0  0  0  0  0  0  0
   24.4775    2.9179   32.2550 C   0  0  3  0  0  0  0  0  0  0  0  0
   23.2164    3.1999   31.7130 C   0  0  0  0  0  0  0  0  0  0  0  0
   24.7079    1.8722   33.1347 O   0  0  0  0  0  0  0  0  0  0  0  0
   23.7954    0.7759   33.1653 C   0  0  0  0  0  0  0  0  0  0  0  0
   26.8105    3.4129   32.4986 N   0  0  0  0  0  0  0  0  0  0  0  0
   28.0304    3.9580   32.3626 C   0  0  0  0  0  0  0  0  0  0  0  0
   28.3090    4.8809   31.6038 O   0  0  0  0  0  0  0  0  0  0  0  0
   29.1268    3.3864   33.2444 C   0  0  0  0  0  0  0  0  0  0  0  0
   24.9324   12.2341   29.5696 H   0  0  0  0  0  0  0  0  0  0  0  0
   23.3951   13.1399   29.7761 H   0  0  0  0  0  0  0  0  0  0  0  0
   24.4166   12.7665   31.2057 H   0  0  0  0  0  0  0  0  0  0  0  0
   22.9596   10.7050   29.4513 H   0  0  0  0  0  0  0  0  0  0  0  0
   23.9811   10.3316   30.8809 H   0  0  0  0  0  0  0  0  0  0  0  0
   19.0018    7.7360   31.9357 H   0  0  0  0  0  0  0  0  0  0  0  0
   20.0523    7.5449   33.3801 H   0  0  0  0  0  0  0  0  0  0  0  0
   18.2177   10.4529   33.9431 H   0  0  0  0  0  0  0  0  0  0  0  0
   17.5962    9.1461   33.1864 H   0  0  0  0  0  0  0  0  0  0  0  0
   21.0667    3.6092   30.3162 H   0  0  0  0  0  0  0  0  0  0  0  0
   21.7517    4.8684   29.2337 H   0  0  0  0  0  0  0  0  0  0  0  0
   24.4769    7.9778   28.8391 H   0  0  0  0  0  0  0  0  0  0  0  0
   25.1064    7.6502   30.4892 H   0  0  0  0  0  0  0  0  0  0  0  0
   25.7522    6.7368   29.0837 H   0  0  0  0  0  0  0  0  0  0  0  0
   26.2151    5.4399   30.7737 H   0  0  0  0  0  0  0  0  0  0  0  0
   24.7015    2.2581   31.4038 H   0  0  0  0  0  0  0  0  0  0  0  0
   22.3768    2.5680   31.9624 H   0  0  0  0  0  0  0  0  0  0  0  0
   24.1278    0.0422   33.9145 H   0  0  0  0  0  0  0  0  0  0  0  0
   22.7922    1.1413   33.4301 H   0  0  0  0  0  0  0  0  0  0  0  0
   23.7622    0.2989   32.1747 H   0  0  0  0  0  0  0  0  0  0  0  0
   30.0677    3.9238   33.0552 H   0  0  0  0  0  0  0  0  0  0  0  0
   28.8447    3.5020   34.3013 H   0  0  0  0  0  0  0  0  0  0  0  0
   29.2620    2.3190   33.0156 H   0  0  0  0  0  0  0  0  0  0  0  0
  1  2  1  0  0  0  0
  2  3  1  0  0  0  0
  3  4  1  0  0  0  0
  4 10  1  0  0  0  0
  4  5  2  0  0  0  0
  5  6  1  0  0  0  0
  6  7  1  0  0  0  0
  6 13  2  0  0  0  0
  7  8  1  0  0  0  0
  8  9  1  0  0  0  0
  8 10  2  0  0  0  0
 10 11  1  0  0  0  0
 11 12  3  0  0  0  0
 13 14  1  0  0  0  0
 14 15  2  0  0  0  0
 14 16  1  0  0  0  0
 16 17  1  0  0  0  0
 17 24  2  0  0  0  0
 17 18  1  0  0  0  0
 18 19  1  0  0  0  0
 18 21  2  0  0  0  0
 19 20  1  0  0  0  0
 21 22  1  0  0  0  0
 22 23  1  0  0  0  0
 22 27  2  0  0  0  0
 23 24  1  0  0  0  0
 23 25  1  0  0  0  0
 25 26  1  0  0  0  0
 27 28  1  0  0  0  0
 28 29  2  0  0  0  0
 28 30  1  0  0  0  0
  1 31  1  0  0  0  0
  1 32  1  0  0  0  0
  1 33  1  0  0  0  0
  2 34  1  0  0  0  0
  2 35  1  0  0  0  0
  7 36  1  0  0  0  0
  7 37  1  0  0  0  0
  9 38  1  0  0  0  0
  9 39  1  0  0  0  0
 16 40  1  0  0  0  0
 16 41  1  0  0  0  0
 20 42  1  0  0  0  0
 20 43  1  0  0  0  0
 20 44  1  0  0  0  0
 21 45  1  0  0  0  0
 23 46  1  0  0  0  0
 24 47  1  0  0  0  0
 26 48  1  0  0  0  0
 26 49  1  0  0  0  0
 26 50  1  0  0  0  0
 30 51  1  0  0  0  0
 30 52  1  0  0  0  0
 30 53  1  0  0  0  0
M  END
> <i_m_stars>
0

> <r_user_dG.exp>
-10.141692

$$$$
18637-1
  -OEChem-05192314073D
 Structure written by MMmdl.
 53 54  0     0  0  0  0  0  0999 V2000
   24.0679   12.3974   30.2299 C   0  0  0  0  0  0  0  0  0  0  0  0
   23.3159   11.0783   30.4227 C   0  0  0  0  0  0  0  0  0  0  0  0
   22.2074   11.3318   31.2810 O   0  0  0  0  0  0  0  0  0  0  0  0
   21.4078   10.2815   31.6977 C   0  0  0  0  0  0  0  0  0  0  0  0
   21.7477    9.0318   31.2791 N   0  0  0  0  0  0  0  0  0  0  0  0
   20.9736    8.0017   31.6536 C   0  0  0  0  0  0  0  0  0  0  0  0
   19.8665    8.1461   32.4779 C   0  0  0  0  0  0  0  0  0  0  0  0
   19.5200    9.4177   32.8981 C   0  0  0  0  0  0  0  0  0  0  0  0
   18.3829    9.4988   33.6931 N   0  0  0  0  0  0  0  0  0  0  0  0
   20.2909   10.5235   32.5051 C   0  0  0  0  0  0  0  0  0  0  0  0
   19.9670   11.8935   32.8853 C   0  0  0  0  0  0  0  0  0  0  0  0
   19.7174   12.9843   33.1812 N   0  0  0  0  0  0  0  0  0  0  0  0
   21.4331    6.8194   31.1098 N   0  0  0  0  0  0  0  0  0  0  0  0
   20.8527    5.6189   31.0281 C   0  0  0  0  0  0  0  0  0  0  0  0
   19.7272    5.3573   31.4476 O   0  0  0  0  0  0  0  0  0  0  0  0
   21.6390    4.5479   30.2799 C   0  0  0  0  0  0  0  0  0  0  0  0
   23.0290    4.2861   30.8549 C   0  0  0  0  0  0  0  0  0  0  0  0
   24.1071    5.1197   30.5266 C   0  0  0  0  0  0  0  0  0  0  0  0
   23.8494    6.2028   29.7043 O   0  0  0  0  0  0  0  0  0  0  0  0
   24.8536    7.1989   29.5184 C   0  0  0  0  0  0  0  0  0  0  0  0
   25.3718    4.8226   31.0461 C   0  0  0  0  0  0  0  0  0  0  0  0
   25.5645    3.7381   31.9139 C   0  0  0  0  0  0  0  0  0  0  0  0
   24.4775    2.9179   32.2550 C   0  0  0  0  0  0  0  0  0  0  0  0
   23.2164    3.1999   31.7130 C   0  0  0  0  0  0  0  0  0  0  0  0
   24.7079    1.8722   33.1347 O   0  0  0  0  0  0  0  0  0  0  0  0
   23.7954    0.7759   33.1653 C   0  0  0  0  0  0  0  0  0  0  0  0
   26.8105    3.4129   32.4986 N   0  0  0  0  0  0  0  0  0  0  0  0
   28.0304    3.9580   32.3626 C   0  0  0  0  0  0  0  0  0  0  0  0
   28.3090    4.8809   31.6038 O   0  0  0  0  0  0  0  0  0  0  0  0
   29.1268    3.3864   33.2444 C   0  0  0  0  0  0  0  0  0  0  0  0
   24.9324   12.2341   29.5696 H   0  0  0  0  0  0  0  0  0  0  0  0
   23.3951   13.1399   29.7761 H   0  0  0  0  0  0  0  0  0  0  0  0
   24.4166   12.7665   31.2057 H   0  0  0  0  0  0  0  0  0  0  0  0
   22.9596   10.7050   29.4513 H   0  0  0  0  0  0  0  0  0  0  0  0
   23.9811   10.3316   30.8809 H   0  0  0  0  0  0  0  0  0  0  0  0
   19.0018    7.7360   31.9357 H   0  0  0  0  0  0  0  0  0  0  0  0
   20.0523    7.5449   33.3801 H   0  0  0  0  0  0  0  0  0  0  0  0
   18.2177   10.4529   33.9431 H   0  0  0  0  0  0  0  0  0  0  0  0
   17.5962    9.1461   33.1864 H   0  0  0  0  0  0  0  0  0  0  0  0
   21.0667    3.6092   30.3162 H   0  0  0  0  0  0  0  0  0  0  0  0
   21.7517    4.8684   29.2337 H   0  0  0  0  0  0  0  0  0  0  0  0
   24.4769    7.9778   28.8391 H   0  0  0  0  0  0  0  0  0  0  0  0
   25.1064    7.6502   30.4892 H   0  0  0  0  0  0  0  0  0  0  0  0
   25.7522    6.7368   29.0837 H   0  0  0  0  0  0  0  0  0  0  0  0
   26.0313    4.6517   30.1824 H   0  0  0  0  0  0  0  0  0  0  0  0
   25.7041    5.7195   31.5894 H   0  0  0  0  0  0  0  0  0  0  0  0
   22.3768    2.5680   31.9624 H   0  0  0  0  0  0  0  0  0  0  0  0
   24.1278    0.0422   33.9145 H   0  0  0  0  0  0  0  0  0  0  0  0
   22.7922    1.1413   33.4301 H   0  0  0  0  0  0  0  0  0  0  0  0
   23.7622    0.2989   32.1747 H   0  0  0  0  0  0  0  0  0  0  0  0
   30.0677    3.9238   33.0552 H   0  0  0  0  0  0  0  0  0  0  0  0
   28.8447    3.5020   34.3013 H   0  0  0  0  0  0  0  0  0  0  0  0
   29.2620    2.3190   33.0156 H   0  0  0  0  0  0  0  0  0  0  0  0
  1  2  1  0  0  0  0
  2  3  1  0  0  0  0
  3  4  1  0  0  0  0
  4 10  1  0  0  0  0
  4  5  2  0  0  0  0
  5  6  1  0  0  0  0
  6  7  1  0  0  0  0
  6 13  2  0  0  0  0
  7  8  1  0  0  0  0
  8  9  1  0  0  0  0
  8 10  2  0  0  0  0
 10 11  1  0  0  0  0
 11 12  3  0  0  0  0
 13 14  1  0  0  0  0
 14 15  2  0  0  0  0
 14 16  1  0  0  0  0
 16 17  1  0  0  0  0
 17 24  1  0  0  0  0
 17 18  2  0  0  0  0
 18 19  1  0  0  0  0
 18 21  1  0  0  0  0
 19 20  1  0  0  0  0
 21 22  1  0  0  0  0
 22 23  1  0  0  0  0
 22 27  2  0  0  0  0
 23 24  2  0  0  0  0
 23 25  1  0  0  0  0
 25 26  1  0  0  0  0
 27 28  1  0  0  0  0
 28 29  2  0  0  0  0
 28 30  1  0  0  0  0
  1 31  1  0  0  0  0
  1 32  1  0  0  0  0
  1 33  1  0  0  0  0
  2 34  1  0  0  0  0
  2 35  1  0  0  0  0
  7 36  1  0  0  0  0
  7 37  1  0  0  0  0
  9 38  1  0  0  0  0
  9 39  1  0  0  0  0
 16 40  1  0  0  0  0
 16 41  1  0  0  0  0
 20 42  1  0  0  0  0
 20 43  1  0  0  0  0
 20 44  1  0  0  0  0
 21 45  1  0  0  0  0
 21 46  1  0  0  0  0
 24 47  1  0  0  0  0
 26 48  1  0  0  0  0
 26 49  1  0  0  0  0
 26 50  1  0  0  0  0
 30 51  1  0  0  0  0
 30 52  1  0  0  0  0
 30 53  1  0  0  0  0
M  END
> <i_m_stars>
0

> <r_user_dG.exp>
-10.141692

$$$$
18637-1
  -OEChem-05192314073D
 Structure written by MMmdl.
 53 54  0     1  0  0  0  0  0999 V2000
   24.0679   12.3974   30.2299 C   0  0  0  0  0  0  0  0  0  0  0  0
   23.3159   11.0783   30.4227 C   0  0  0  0  0  0  0  0  0  0  0  0
   22.2074   11.3318   31.2810 O   0  0  0  0  0  0  0  0  0  0  0  0
   21.4078   10.2815   31.6977 C   0  0  0  0  0  0  0  0  0  0  0  0
   21.7477    9.0318   31.2791 N   0  0  0  0  0  0  0  0  0  0  0  0
   20.9736    8.0017   31.6536 C   0  0  0  0  0  0  0  0  0  0  0  0
   19.8665    8.1461   32.4779 C   0  0  0  0  0  0  0  0  0  0  0  0
   19.5200    9.4177   32.8981 C   0  0  0  0  0  0  0  0  0  0  0  0
   18.3829    9.4988   33.6931 N   0  0  0  0  0  0  0  0  0  0  0  0
   20.2909   10.5235   32.5051 C   0  0  0  0  0  0  0  0  0  0  0  0
   19.9670   11.8935   32.8853 C   0  0  0  0  0  0  0  0  0  0  0  0
   19.7174   12.9843   33.1812 N   0  0  0  0  0  0  0  0  0  0  0  0
   21.4331    6.8194   31.1098 N   0  0  0  0  0  0  0  0  0  0  0  0
   20.8527    5.6189   31.0281 C   0  0  0  0  0  0  0  0  0  0  0  0
   19.7272    5.3573   31.4476 O   0  0  0  0  0  0  0  0  0  0  0  0
   21.6390    4.5479   30.2799 C   0  0  0  0  0  0  0  0  0  0  0  0
   23.0290    4.2861   30.8549 C   0  0  3  0  0  0  0  0  0  0  0  0
   24.1071    5.1197   30.5266 C   0  0  0  0  0  0  0  0  0  0  0  0
   23.8494    6.2028   29.7043 O   0  0  0  0  0  0  0  0  0  0  0  0
   24.8536    7.1989   29.5184 C   0  0  0  0  0  0  0  0  0  0  0  0
   25.3718    4.8226   31.0461 C   0  0  0  0  0  0  0  0  0  0  0  0
   25.5645    3.7381   31.9139 C   0  0  0  0  0  0  0  0  0  0  0  0
   24.4775    2.9179   32.2550 C   0  0  0  0  0  0  0  0  0  0  0  0
   23.2164    3.1999   31.7130 C   0  0  0  0  0  0  0  0  0  0  0  0
   24.7079    1.8722   33.1347 O   0  0  0  0  0  0  0  0  0  0  0  0
   23.7954    0.7759   33.1653 C   0  0  0  0  0  0  0  0  0  0  0  0
   26.8105    3.4129   32.4986 N   0  0  0  0  0  0  0  0  0  0  0  0
   28.0304    3.9580   32.3626 C   0  0  0  0  0  0  0  0  0  0  0  0
   28.3090    4.8809   31.6038 O   0  0  0  0  0  0  0  0  0  0  0  0
   29.1268    3.3864   33.2444 C   0  0  0  0  0  0  0  0  0  0  0  0
   24.9324   12.2341   29.5696 H   0  0  0  0  0  0  0  0  0  0  0  0
   23.3951   13.1399   29.7761 H   0  0  0  0  0  0  0  0  0  0  0  0
   24.4166   12.7665   31.2057 H   0  0  0  0  0  0  0  0  0  0  0  0
   22.9596   10.7050   29.4513 H   0  0  0  0  0  0  0  0  0  0  0  0
   23.9811   10.3316   30.8809 H   0  0  0  0  0  0  0  0  0  0  0  0
   22.5544    8.8849   30.7066 H   0  0  0  0  0  0  0  0  0  0  0  0
   19.0018    7.7360   31.9357 H   0  0  0  0  0  0  0  0  0  0  0  0
   20.0523    7.5449   33.3801 H   0  0  0  0  0  0  0  0  0  0  0  0
   18.1753   10.4413   33.9549 H   0  0  0  0  0  0  0  0  0  0  0  0
   21.0667    3.6092   30.3162 H   0  0  0  0  0  0  0  0  0  0  0  0
   21.7517    4.8684   29.2337 H   0  0  0  0  0  0  0  0  0  0  0  0
   22.7942    4.9278   31.7169 H   0  0  0  0  0  0  0  0  0  0  0  0
   24.4769    7.9778   28.8391 H   0  0  0  0  0  0  0  0  0  0  0  0
   25.1064    7.6502   30.4892 H   0  0  0  0  0  0  0  0  0  0  0  0
   25.7522    6.7368   29.0837 H   0  0  0  0  0  0  0  0  0  0  0  0
   26.2151    5.4399   30.7737 H   0  0  0  0  0  0  0  0  0  0  0  0
   22.3768    2.5680   31.9624 H   0  0  0  0  0  0  0  0  0  0  0  0
   24.1278    0.0422   33.9145 H   0  0  0  0  0  0  0  0  0  0  0  0
   22.7922    1.1413   33.4301 H   0  0  0  0  0  0  0  0  0  0  0  0
   23.7622    0.2989   32.1747 H   0  0  0  0  0  0  0  0  0  0  0  0
   30.0677    3.9238   33.0552 H   0  0  0  0  0  0  0  0  0  0  0  0
   28.8447    3.5020   34.3013 H   0  0  0  0  0  0  0  0  0  0  0  0
   29.2620    2.3190   33.0156 H   0  0  0  0  0  0  0  0  0  0  0  0
  1  2  1  0  0  0  0
  2  3  1  0  0  0  0
  3  4  1  0  0  0  0
  4 10  2  0  0  0  0
  4  5  1  0  0  0  0
  5  6  1  0  0  0  0
  6  7  1  0  0  0  0
  6 13  2  0  0  0  0
  7  8  1  0  0  0  0
  8  9  2  0  0  0  0
  8 10  1  0  0  0  0
 10 11  1  0  0  0  0
 11 12  3  0  0  0  0
 13 14  1  0  0  0  0
 14 15  2  0  0  0  0
 14 16  1  0  0  0  0
 16 17  1  0  0  0  0
 17 24  1  0  0  0  0
 17 18  1  0  0  0  0
 18 19  1  0  0  0  0
 18 21  2  0  0  0  0
 19 20  1  0  0  0  0
 21 22  1  0  0  0  0
 22 23  1  0  0  0  0
 22 27  2  0  0  0  0
 23 24  2  0  0  0  0
 23 25  1  0  0  0  0
 25 26  1  0  0  0  0
 27 28  1  0  0  0  0
 28 29  2  0  0  0  0
 28 30  1  0  0  0  0
  1 31  1  0  0  0  0
  1 32  1  0  0  0  0
  1 33  1  0  0  0  0
  2 34  1  0  0  0  0
  2 35  1  0  0  0  0
  5 36  1  0  0  0  0
  7 37  1  0  0  0  0
  7 38  1  0  0  0  0
  9 39  1  0  0  0  0
 16 40  1  0  0  0  0
 16 41  1  0  0  0  0
 17 42  1  0  0  0  0
 20 43  1  0  0  0  0
 20 44  1  0  0  0  0
 20 45  1  0  0  0  0
 21 46  1  0  0  0  0
 24 47  1  0  0  0  0
 26 48  1  0  0  0  0
 26 49  1  0  0  0  0
 26 50  1  0  0  0  0
 30 51  1  0  0  0  0
 30 52  1  0  0  0  0
 30 53  1  0  0  0  0
M  END
> <i_m_stars>
0

> <r_user_dG.exp>
-10.141692

$$$$
18637-1
  -OEChem-05192314073D
 Structure written by MMmdl.
 53 54  0     1  0  0  0  0  0999 V2000
   24.0679   12.3974   30.2299 C   0  0  0  0  0  0  0  0  0  0  0  0
   23.3159   11.0783   30.4227 C   0  0  0  0  0  0  0  0  0  0  0  0
   22.2074   11.3318   31.2810 O   0  0  0  0  0  0  0  0  0  0  0  0
   21.4078   10.2815   31.6977 C   0  0  0  0  0  0  0  0  0  0  0  0
   21.7477    9.0318   31.2791 N   0  0  0  0  0  0  0  0  0  0  0  0
   20.9736    8.0017   31.6536 C   0  0  0  0  0  0  0  0  0  0  0  0
   19.8665    8.1461   32.4779 C   0  0  0  0  0  0  0  0  0  0  0  0
   19.5200    9.4177   32.8981 C   0  0  0  0  0  0  0  0  0  0  0  0
   18.3829    9.4988   33.6931 N   0  0  0  0  0  0  0  0  0  0  0  0
   20.2909   10.5235   32.5051 C   0  0  0  0  0  0  0  0  0  0  0  0
   19.9670   11.8935   32.8853 C   0  0  0  0  0  0  0  0  0  0  0  0
   19.7174   12.9843   33.1812 N   0  0  0  0  0  0  0  0  0  0  0  0
   21.4331    6.8194   31.1098 N   0  0  0  0  0  0  0  0  0  0  0  0
   20.8527    5.6189   31.0281 C   0  0  0  0  0  0  0  0  0  0  0  0
   19.7272    5.3573   31.4476 O   0  0  0  0  0  0  0  0  0  0  0  0
   21.6390    4.5479   30.2799 C   0  0  0  0  0  0  0  0  0  0  0  0
   23.0290    4.2861   30.8549 C   0  0  0  0  0  0  0  0  0  0  0  0
   24.1071    5.1197   30.5266 C   0  0  0  0  0  0  0  0  0  0  0  0
   23.8494    6.2028   29.7043 O   0  0  0  0  0  0  0  0  0  0  0  0
   24.8536    7.1989   29.5184 C   0  0  0  0  0  0  0  0  0  0  0  0
   25.3718    4.8226   31.0461 C   0  0  0  0  0  0  0  0  0  0  0  0
   25.5645    3.7381   31.9139 C   0  0  0  0  0  0  0  0  0  0  0  0
   24.4775    2.9179   32.2550 C   0  0  3  0  0  0  0  0  0  0  0  0
   23.2164    3.1999   31.7130 C   0  0  0  0  0  0  0  0  0  0  0  0
   24.7079    1.8722   33.1347 O   0  0  0  0  0  0  0  0  0  0  0  0
   23.7954    0.7759   33.1653 C   0  0  0  0  0  0  0  0  0  0  0  0
   26.8105    3.4129   32.4986 N   0  0  0  0  0  0  0  0  0  0  0  0
   28.0304    3.9580   32.3626 C   0  0  0  0  0  0  0  0  0  0  0  0
   28.3090    4.8809   31.6038 O   0  0  0  0  0  0  0  0  0  0  0  0
   29.1268    3.3864   33.2444 C   0  0  0  0  0  0  0  0  0  0  0  0
   24.9324   12.2341   29.5696 H   0  0  0  0  0  0  0  0  0  0  0  0
   23.3951   13.1399   29.7761 H   0  0  0  0  0  0  0  0  0  0  0  0
   24.4166   12.7665   31.2057 H   0  0  0  0  0  0  0  0  0  0  0  0
   22.9596   10.7050   29.4513 H   0  0  0  0  0  0  0  0  0  0  0  0
   23.9811   10.3316   30.8809 H   0  0  0  0  0  0  0  0  0  0  0  0
   22.5544    8.8849   30.7066 H   0  0  0  0  0  0  0  0  0  0  0  0
   19.0018    7.7360   31.9357 H   0  0  0  0  0  0  0  0  0  0  0  0
   20.0523    7.5449   33.3801 H   0  0  0  0  0  0  0  0  0  0  0  0
   18.1753   10.4413   33.9549 H   0  0  0  0  0  0  0  0  0  0  0  0
   21.0667    3.6092   30.3162 H   0  0  0  0  0  0  0  0  0  0  0  0
   21.7517    4.8684   29.2337 H   0  0  0  0  0  0  0  0  0  0  0  0
   24.4769    7.9778   28.8391 H   0  0  0  0  0  0  0  0  0  0  0  0
   25.1064    7.6502   30.4892 H   0  0  0  0  0  0  0  0  0  0  0  0
   25.7522    6.7368   29.0837 H   0  0  0  0  0  0  0  0  0  0  0  0
   26.2151    5.4399   30.7737 H   0  0  0  0  0  0  0  0  0  0  0  0
   24.7015    2.2581   31.4038 H   0  0  0  0  0  0  0  0  0  0  0  0
   22.3768    2.5680   31.9624 H   0  0  0  0  0  0  0  0  0  0  0  0
   24.1278    0.0422   33.9145 H   0  0  0  0  0  0  0  0  0  0  0  0
   22.7922    1.1413   33.4301 H   0  0  0  0  0  0  0  0  0  0  0  0
   23.7622    0.2989   32.1747 H   0  0  0  0  0  0  0  0  0  0  0  0
   30.0677    3.9238   33.0552 H   0  0  0  0  0  0  0  0  0  0  0  0
   28.8447    3.5020   34.3013 H   0  0  0  0  0  0  0  0  0  0  0  0
   29.2620    2.3190   33.0156 H   0  0  0  0  0  0  0  0  0  0  0  0
  1  2  1  0  0  0  0
  2  3  1  0  0  0  0
  3  4  1  0  0  0  0
  4 10  2  0  0  0  0
  4  5  1  0  0  0  0
  5  6  1  0  0  0  0
  6  7  1  0  0  0  0
  6 13  2  0  0  0  0
  7  8  1  0  0  0  0
  8  9  2  0  0  0  0
  8 10  1  0  0  0  0
 10 11  1  0  0  0  0
 11 12  3  0  0  0  0
 13 14  1  0  0  0  0
 14 15  2  0  0  0  0
 14 16  1  0  0  0  0
 16 17  1  0  0  0  0
 17 24  2  0  0  0  0
 17 18  1  0  0  0  0
 18 19  1  0  0  0  0
 18 21  2  0  0  0  0
 19 20  1  0  0  0  0
 21 22  1  0  0  0  0
 22 23  1  0  0  0  0
 22 27  2  0  0  0  0
 23 24  1  0  0  0  0
 23 25  1  0  0  0  0
 25 26  1  0  0  0  0
 27 28  1  0  0  0  0
 28 29  2  0  0  0  0
 28 30  1  0  0  0  0
  1 31  1  0  0  0  0
  1 32  1  0  0  0  0
  1 33  1  0  0  0  0
  2 34  1  0  0  0  0
  2 35  1  0  0  0  0
  5 36  1  0  0  0  0
  7 37  1  0  0  0  0
  7 38  1  0  0  0  0
  9 39  1  0  0  0  0
 16 40  1  0  0  0  0
 16 41  1  0  0  0  0
 20 42  1  0  0  0  0
 20 43  1  0  0  0  0
 20 44  1  0  0  0  0
 21 45  1  0  0  0  0
 23 46  1  0  0  0  0
 24 47  1  0  0  0  0
 26 48  1  0  0  0  0
 26 49  1  0  0  0  0
 26 50  1  0  0  0  0
 30 51  1  0  0  0  0
 30 52  1  0  0  0  0
 30 53  1  0  0  0  0
M  END
> <i_m_stars>
0

> <r_user_dG.exp>
-10.141692

$$$$
18637-1
  -OEChem-05192314073D
 Structure written by MMmdl.
 53 54  0     0  0  0  0  0  0999 V2000
   24.0679   12.3974   30.2299 C   0  0  0  0  0  0  0  0  0  0  0  0
   23.3159   11.0783   30.4227 C   0  0  0  0  0  0  0  0  0  0  0  0
   22.2074   11.3318   31.2810 O   0  0  0  0  0  0  0  0  0  0  0  0
   21.4078   10.2815   31.6977 C   0  0  0  0  0  0  0  0  0  0  0  0
   21.7477    9.0318   31.2791 N   0  0  0  0  0  0  0  0  0  0  0  0
   20.9736    8.0017   31.6536 C   0  0  0  0  0  0  0  0  0  0  0  0
   19.8665    8.1461   32.4779 C   0  0  0  0  0  0  0  0  0  0  0  0
   19.5200    9.4177   32.8981 C   0  0  0  0  0  0  0  0  0  0  0  0
   18.3829    9.4988   33.6931 N   0  0  0  0  0  0  0  0  0  0  0  0
   20.2909   10.5235   32.5051 C   0  0  0  0  0  0  0  0  0  0  0  0
   19.9670   11.8935   32.8853 C   0  0  0  0  0  0  0  0  0  0  0  0
   19.7174   12.9843   33.1812 N   0  0  0  0  0  0  0  0  0  0  0  0
   21.4331    6.8194   31.1098 N   0  0  0  0  0  0  0  0  0  0  0  0
   20.8527    5.6189   31.0281 C   0  0  0  0  0  0  0  0  0  0  0  0
   19.7272    5.3573   31.4476 O   0  0  0  0  0  0  0  0  0  0  0  0
   21.6390    4.5479   30.2799 C   0  0  0  0  0  0  0  0  0  0  0  0
   23.0290    4.2861   30.8549 C   0  0  0  0  0  0  0  0  0  0  0  0
   24.1071    5.1197   30.5266 C   0  0  0  0  0  0  0  0  0  0  0  0
   23.8494    6.2028   29.7043 O   0  0  0  0  0  0  0  0  0  0  0  0
   24.8536    7.1989   29.5184 C   0  0  0  0  0  0  0  0  0  0  0  0
   25.3718    4.8226   31.0461 C   0  0  0  0  0  0  0  0  0  0  0  0
   25.5645    3.7381   31.9139 C   0  0  0  0  0  0  0  0  0  0  0  0
   24.4775    2.9179   32.2550 C   0  0  0  0  0  0  0  0  0  0  0  0
   23.2164    3.1999   31.7130 C   0  0  0  0  0  0  0  0  0  0  0  0
   24.7079    1.8722   33.1347 O   0  0  0  0  0  0  0  0  0  0  0  0
   23.7954    0.7759   33.1653 C   0  0  0  0  0  0  0  0  0  0  0  0
   26.8105    3.4129   32.4986 N   0  0  0  0  0  0  0  0  0  0  0  0
   28.0304    3.9580   32.3626 C   0  0  0  0  0  0  0  0  0  0  0  0
   28.3090    4.8809   31.6038 O   0  0  0  0  0  0  0  0  0  0  0  0
   29.1268    3.3864   33.2444 C   0  0  0  0  0  0  0  0  0  0  0  0
   24.9324   12.2341   29.5696 H   0  0  0  0  0  0  0  0  0  0  0  0
   23.3951   13.1399   29.7761 H   0  0  0  0  0  0  0  0  0  0  0  0
   24.4166   12.7665   31.2057 H   0  0  0  0  0  0  0  0  0  0  0  0
   22.9596   10.7050   29.4513 H   0  0  0  0  0  0  0  0  0  0  0  0
   23.9811   10.3316   30.8809 H   0  0  0  0  0  0  0  0  0  0  0  0
   22.5544    8.8849   30.7066 H   0  0  0  0  0  0  0  0  0  0  0  0
   19.0018    7.7360   31.9357 H   0  0  0  0  0  0  0  0  0  0  0  0
   20.0523    7.5449   33.3801 H   0  0  0  0  0  0  0  0  0  0  0  0
   18.1753   10.4413   33.9549 H   0  0  0  0  0  0  0  0  0  0  0  0
   21.0667    3.6092   30.3162 H   0  0  0  0  0  0  0  0  0  0  0  0
   21.7517    4.8684   29.2337 H   0  0  0  0  0  0  0  0  0  0  0  0
   24.4769    7.9778   28.8391 H   0  0  0  0  0  0  0  0  0  0  0  0
   25.1064    7.6502   30.4892 H   0  0  0  0  0  0  0  0  0  0  0  0
   25.7522    6.7368   29.0837 H   0  0  0  0  0  0  0  0  0  0  0  0
   26.0313    4.6517   30.1824 H   0  0  0  0  0  0  0  0  0  0  0  0
   25.7041    5.7195   31.5894 H   0  0  0  0  0  0  0  0  0  0  0  0
   22.3768    2.5680   31.9624 H   0  0  0  0  0  0  0  0  0  0  0  0
   24.1278    0.0422   33.9145 H   0  0  0  0  0  0  0  0  0  0  0  0
   22.7922    1.1413   33.4301 H   0  0  0  0  0  0  0  0  0  0  0  0
   23.7622    0.2989   32.1747 H   0  0  0  0  0  0  0  0  0  0  0  0
   30.0677    3.9238   33.0552 H   0  0  0  0  0  0  0  0  0  0  0  0
   28.8447    3.5020   34.3013 H   0  0  0  0  0  0  0  0  0  0  0  0
   29.2620    2.3190   33.0156 H   0  0  0  0  0  0  0  0  0  0  0  0
  1  2  1  0  0  0  0
  2  3  1  0  0  0  0
  3  4  1  0  0  0  0
  4 10  2  0  0  0  0
  4  5  1  0  0  0  0
  5  6  1  0  0  0  0
  6  7  1  0  0  0  0
  6 13  2  0  0  0  0
  7  8  1  0  0  0  0
  8  9  2  0  0  0  0
  8 10  1  0  0  0  0
 10 11  1  0  0  0  0
 11 12  3  0  0  0  0
 13 14  1  0  0  0  0
 14 15  2  0  0  0  0
 14 16  1  0  0  0  0
 16 17  1  0  0  0  0
 17 24  1  0  0  0  0
 17 18  2  0  0  0  0
 18 19  1  0  0  0  0
 18 21  1  0  0  0  0
 19 20  1  0  0  0  0
 21 22  1  0  0  0  0
 22 23  1  0  0  0  0
 22 27  2  0  0  0  0
 23 24  2  0  0  0  0
 23 25  1  0  0  0  0
 25 26  1  0  0  0  0
 27 28  1  0  0  0  0
 28 29  2  0  0  0  0
 28 30  1  0  0  0  0
  1 31  1  0  0  0  0
  1 32  1  0  0  0  0
  1 33  1  0  0  0  0
  2 34  1  0  0  0  0
  2 35  1  0  0  0  0
  5 36  1  0  0  0  0
  7 37  1  0  0  0  0
  7 38  1  0  0  0  0
  9 39  1  0  0  0  0
 16 40  1  0  0  0  0
 16 41  1  0  0  0  0
 20 42  1  0  0  0  0
 20 43  1  0  0  0  0
 20 44  1  0  0  0  0
 21 45  1  0  0  0  0
 21 46  1  0  0  0  0
 24 47  1  0  0  0  0
 26 48  1  0  0  0  0
 26 49  1  0  0  0  0
 26 50  1  0  0  0  0
 30 51  1  0  0  0  0
 30 52  1  0  0  0  0
 30 53  1  0  0  0  0
M  END
> <i_m_stars>
0

> <r_user_dG.exp>
-10.141692

$$$$
18637-1
  -OEChem-05192314073D
 Structure written by MMmdl.
 53 54  0     1  0  0  0  0  0999 V2000
   24.0679   12.3974   30.2299 C   0  0  0  0  0  0  0  0  0  0  0  0
   23.3159   11.0783   30.4227 C   0  0  0  0  0  0  0  0  0  0  0  0
   22.2074   11.3318   31.2810 O   0  0  0  0  0  0  0  0  0  0  0  0
   21.4078   10.2815   31.6977 C   0  0  0  0  0  0  0  0  0  0  0  0
   21.7477    9.0318   31.2791 N   0  0  0  0  0  0  0  0  0  0  0  0
   20.9736    8.0017   31.6536 C   0  0  0  0  0  0  0  0  0  0  0  0
   19.8665    8.1461   32.4779 C   0  0  0  0  0  0  0  0  0  0  0  0
   19.5200    9.4177   32.8981 C   0  0  0  0  0  0  0  0  0  0  0  0
   18.3829    9.4988   33.6931 N   0  0  0  0  0  0  0  0  0  0  0  0
   20.2909   10.5235   32.5051 C   0  0  3  0  0  0  0  0  0  0  0  0
   19.9670   11.8935   32.8853 C   0  0  0  0  0  0  0  0  0  0  0  0
   19.7174   12.9843   33.1812 N   0  0  0  0  0  0  0  0  0  0  0  0
   21.4331    6.8194   31.1098 N   0  0  0  0  0  0  0  0  0  0  0  0
   20.8527    5.6189   31.0281 C   0  0  0  0  0  0  0  0  0  0  0  0
   19.7272    5.3573   31.4476 O   0  0  0  0  0  0  0  0  0  0  0  0
   21.6390    4.5479   30.2799 C   0  0  0  0  0  0  0  0  0  0  0  0
   23.0290    4.2861   30.8549 C   0  0  3  0  0  0  0  0  0  0  0  0
   24.1071    5.1197   30.5266 C   0  0  0  0  0  0  0  0  0  0  0  0
   23.8494    6.2028   29.7043 O   0  0  0  0  0  0  0  0  0  0  0  0
   24.8536    7.1989   29.5184 C   0  0  0  0  0  0  0  0  0  0  0  0
   25.3718    4.8226   31.0461 C   0  0  0  0  0  0  0  0  0  0  0  0
   25.5645    3.7381   31.9139 C   0  0  0  0  0  0  0  0  0  0  0  0
   24.4775    2.9179   32.2550 C   0  0  0  0  0  0  0  0  0  0  0  0
   23.2164    3.1999   31.7130 C   0  0  0  0  0  0  0  0  0  0  0  0
   24.7079    1.8722   33.1347 O   0  0  0  0  0  0  0  0  0  0  0  0
   23.7954    0.7759   33.1653 C   0  0  0  0  0  0  0  0  0  0  0  0
   26.8105    3.4129   32.4986 N   0  0  0  0  0  0  0  0  0  0  0  0
   28.0304    3.9580   32.3626 C   0  0  0  0  0  0  0  0  0  0  0  0
   28.3090    4.8809   31.6038 O   0  0  0  0  0  0  0  0  0  0  0  0
   29.1268    3.3864   33.2444 C   0  0  0  0  0  0  0  0  0  0  0  0
   24.9324   12.2341   29.5696 H   0  0  0  0  0  0  0  0  0  0  0  0
   23.3951   13.1399   29.7761 H   0  0  0  0  0  0  0  0  0  0  0  0
   24.4166   12.7665   31.2057 H   0  0  0  0  0  0  0  0  0  0  0  0
   22.9596   10.7050   29.4513 H   0  0  0  0  0  0  0  0  0  0  0  0
   23.9811   10.3316   30.8809 H   0  0  0  0  0  0  0  0  0  0  0  0
   19.2892    7.2862   32.7840 H   0  0  0  0  0  0  0  0  0  0  0  0
   18.1753   10.4413   33.9549 H   0  0  0  0  0  0  0  0  0  0  0  0
   20.9130   10.4158   33.4059 H   0  0  0  0  0  0  0  0  0  0  0  0
   19.5301    4.4435   31.2783 H   0  0  0  0  0  0  0  0  0  0  0  0
   21.0667    3.6092   30.3162 H   0  0  0  0  0  0  0  0  0  0  0  0
   21.7517    4.8684   29.2337 H   0  0  0  0  0  0  0  0  0  0  0  0
   22.7942    4.9278   31.7169 H   0  0  0  0  0  0  0  0  0  0  0  0
   24.4769    7.9778   28.8391 H   0  0  0  0  0  0  0  0  0  0  0  0
   25.1064    7.6502   30.4892 H   0  0  0  0  0  0  0  0  0  0  0  0
   25.7522    6.7368   29.0837 H   0  0  0  0  0  0  0  0  0  0  0  0
   26.2151    5.4399   30.7737 H   0  0  0  0  0  0  0  0  0  0  0  0
   22.3768    2.5680   31.9624 H   0  0  0  0  0  0  0  0  0  0  0  0
   24.1278    0.0422   33.9145 H   0  0  0  0  0  0  0  0  0  0  0  0
   22.7922    1.1413   33.4301 H   0  0  0  0  0  0  0  0  0  0  0  0
   23.7622    0.2989   32.1747 H   0  0  0  0  0  0  0  0  0  0  0  0
   30.0677    3.9238   33.0552 H   0  0  0  0  0  0  0  0  0  0  0  0
   28.8447    3.5020   34.3013 H   0  0  0  0  0  0  0  0  0  0  0  0
   29.2620    2.3190   33.0156 H   0  0  0  0  0  0  0  0  0  0  0  0
  1  2  1  0  0  0  0
  2  3  1  0  0  0  0
  3  4  1  0  0  0  0
  4 10  1  0  0  0  0
  4  5  2  0  0  0  0
  5  6  1  0  0  0  0
  6  7  2  0  0  0  0
  6 13  1  0  0  0  0
  7  8  1  0  0  0  0
  8  9  2  0  0  0  0
  8 10  1  0  0  0  0
 10 11  1  0  0  0  0
 11 12  3  0  0  0  0
 13 14  2  0  0  0  0
 14 15  1  0  0  0  0
 14 16  1  0  0  0  0
 16 17  1  0  0  0  0
 17 24  1  0  0  0  0
 17 18  1  0  0  0  0
 18 19  1  0  0  0  0
 18 21  2  0  0  0  0
 19 20  1  0  0  0  0
 21 22  1  0  0  0  0
 22 23  1  0  0  0  0
 22 27  2  0  0  0  0
 23 24  2  0  0  0  0
 23 25  1  0  0  0  0
 25 26  1  0  0  0  0
 27 28  1  0  0  0  0
 28 29  2  0  0  0  0
 28 30  1  0  0  0  0
  1 31  1  0  0  0  0
  1 32  1  0  0  0  0
  1 33  1  0  0  0  0
  2 34  1  0  0  0  0
  2 35  1  0  0  0  0
  7 36  1  0  0  0  0
  9 37  1  0  0  0  0
 10 38  1  0  0  0  0
 15 39  1  0  0  0  0
 16 40  1  0  0  0  0
 16 41  1  0  0  0  0
 17 42  1  0  0  0  0
 20 43  1  0  0  0  0
 20 44  1  0  0  0  0
 20 45  1  0  0  0  0
 21 46  1  0  0  0  0
 24 47  1  0  0  0  0
 26 48  1  0  0  0  0
 26 49  1  0  0  0  0
 26 50  1  0  0  0  0
 30 51  1  0  0  0  0
 30 52  1  0  0  0  0
 30 53  1  0  0  0  0
M  END
> <i_m_stars>
0

> <r_user_dG.exp>
-10.141692

$$$$
18637-1
  -OEChem-05192314073D
 Structure written by MMmdl.
 53 54  0     1  0  0  0  0  0999 V2000
   24.0679   12.3974   30.2299 C   0  0  0  0  0  0  0  0  0  0  0  0
   23.3159   11.0783   30.4227 C   0  0  0  0  0  0  0  0  0  0  0  0
   22.2074   11.3318   31.2810 O   0  0  0  0  0  0  0  0  0  0  0  0
   21.4078   10.2815   31.6977 C   0  0  0  0  0  0  0  0  0  0  0  0
   21.7477    9.0318   31.2791 N   0  0  0  0  0  0  0  0  0  0  0  0
   20.9736    8.0017   31.6536 C   0  0  0  0  0  0  0  0  0  0  0  0
   19.8665    8.1461   32.4779 C   0  0  0  0  0  0  0  0  0  0  0  0
   19.5200    9.4177   32.8981 C   0  0  0  0  0  0  0  0  0  0  0  0
   18.3829    9.4988   33.6931 N   0  0  0  0  0  0  0  0  0  0  0  0
   20.2909   10.5235   32.5051 C   0  0  3  0  0  0  0  0  0  0  0  0
   19.9670   11.8935   32.8853 C   0  0  0  0  0  0  0  0  0  0  0  0
   19.7174   12.9843   33.1812 N   0  0  0  0  0  0  0  0  0  0  0  0
   21.4331    6.8194   31.1098 N   0  0  0  0  0  0  0  0  0  0  0  0
   20.8527    5.6189   31.0281 C   0  0  0  0  0  0  0  0  0  0  0  0
   19.7272    5.3573   31.4476 O   0  0  0  0  0  0  0  0  0  0  0  0
   21.6390    4.5479   30.2799 C   0  0  0  0  0  0  0  0  0  0  0  0
   23.0290    4.2861   30.8549 C   0  0  0  0  0  0  0  0  0  0  0  0
   24.1071    5.1197   30.5266 C   0  0  0  0  0  0  0  0  0  0  0  0
   23.8494    6.2028   29.7043 O   0  0  0  0  0  0  0  0  0  0  0  0
   24.8536    7.1989   29.5184 C   0  0  0  0  0  0  0  0  0  0  0  0
   25.3718    4.8226   31.0461 C   0  0  0  0  0  0  0  0  0  0  0  0
   25.5645    3.7381   31.9139 C   0  0  0  0  0  0  0  0  0  0  0  0
   24.4775    2.9179   32.2550 C   0  0  3  0  0  0  0  0  0  0  0  0
   23.2164    3.1999   31.7130 C   0  0  0  0  0  0  0  0  0  0  0  0
   24.7079    1.8722   33.1347 O   0  0  0  0  0  0  0  0  0  0  0  0
   23.7954    0.7759   33.1653 C   0  0  0  0  0  0  0  0  0  0  0  0
   26.8105    3.4129   32.4986 N   0  0  0  0  0  0  0  0  0  0  0  0
   28.0304    3.9580   32.3626 C   0  0  0  0  0  0  0  0  0  0  0  0
   28.3090    4.8809   31.6038 O   0  0  0  0  0  0  0  0  0  0  0  0
   29.1268    3.3864   33.2444 C   0  0  0  0  0  0  0  0  0  0  0  0
   24.9324   12.2341   29.5696 H   0  0  0  0  0  0  0  0  0  0  0  0
   23.3951   13.1399   29.7761 H   0  0  0  0  0  0  0  0  0  0  0  0
   24.4166   12.7665   31.2057 H   0  0  0  0  0  0  0  0  0  0  0  0
   22.9596   10.7050   29.4513 H   0  0  0  0  0  0  0  0  0  0  0  0
   23.9811   10.3316   30.8809 H   0  0  0  0  0  0  0  0  0  0  0  0
   19.2892    7.2862   32.7840 H   0  0  0  0  0  0  0  0  0  0  0  0
   18.1753   10.4413   33.9549 H   0  0  0  0  0  0  0  0  0  0  0  0
   20.9130   10.4158   33.4059 H   0  0  0  0  0  0  0  0  0  0  0  0
   19.5301    4.4435   31.2783 H   0  0  0  0  0  0  0  0  0  0  0  0
   21.0667    3.6092   30.3162 H   0  0  0  0  0  0  0  0  0  0  0  0
   21.7517    4.8684   29.2337 H   0  0  0  0  0  0  0  0  0  0  0  0
   24.4769    7.9778   28.8391 H   0  0  0  0  0  0  0  0  0  0  0  0
   25.1064    7.6502   30.4892 H   0  0  0  0  0  0  0  0  0  0  0  0
   25.7522    6.7368   29.0837 H   0  0  0  0  0  0  0  0  0  0  0  0
   26.2151    5.4399   30.7737 H   0  0  0  0  0  0  0  0  0  0  0  0
   24.7015    2.2581   31.4038 H   0  0  0  0  0  0  0  0  0  0  0  0
   22.3768    2.5680   31.9624 H   0  0  0  0  0  0  0  0  0  0  0  0
   24.1278    0.0422   33.9145 H   0  0  0  0  0  0  0  0  0  0  0  0
   22.7922    1.1413   33.4301 H   0  0  0  0  0  0  0  0  0  0  0  0
   23.7622    0.2989   32.1747 H   0  0  0  0  0  0  0  0  0  0  0  0
   30.0677    3.9238   33.0552 H   0  0  0  0  0  0  0  0  0  0  0  0
   28.8447    3.5020   34.3013 H   0  0  0  0  0  0  0  0  0  0  0  0
   29.2620    2.3190   33.0156 H   0  0  0  0  0  0  0  0  0  0  0  0
  1  2  1  0  0  0  0
  2  3  1  0  0  0  0
  3  4  1  0  0  0  0
  4 10  1  0  0  0  0
  4  5  2  0  0  0  0
  5  6  1  0  0  0  0
  6  7  2  0  0  0  0
  6 13  1  0  0  0  0
  7  8  1  0  0  0  0
  8  9  2  0  0  0  0
  8 10  1  0  0  0  0
 10 11  1  0  0  0  0
 11 12  3  0  0  0  0
 13 14  2  0  0  0  0
 14 15  1  0  0  0  0
 14 16  1  0  0  0  0
 16 17  1  0  0  0  0
 17 24  2  0  0  0  0
 17 18  1  0  0  0  0
 18 19  1  0  0  0  0
 18 21  2  0  0  0  0
 19 20  1  0  0  0  0
 21 22  1  0  0  0  0
 22 23  1  0  0  0  0
 22 27  2  0  0  0  0
 23 24  1  0  0  0  0
 23 25  1  0  0  0  0
 25 26  1  0  0  0  0
 27 28  1  0  0  0  0
 28 29  2  0  0  0  0
 28 30  1  0  0  0  0
  1 31  1  0  0  0  0
  1 32  1  0  0  0  0
  1 33  1  0  0  0  0
  2 34  1  0  0  0  0
  2 35  1  0  0  0  0
  7 36  1  0  0  0  0
  9 37  1  0  0  0  0
 10 38  1  0  0  0  0
 15 39  1  0  0  0  0
 16 40  1  0  0  0  0
 16 41  1  0  0  0  0
 20 42  1  0  0  0  0
 20 43  1  0  0  0  0
 20 44  1  0  0  0  0
 21 45  1  0  0  0  0
 23 46  1  0  0  0  0
 24 47  1  0  0  0  0
 26 48  1  0  0  0  0
 26 49  1  0  0  0  0
 26 50  1  0  0  0  0
 30 51  1  0  0  0  0
 30 52  1  0  0  0  0
 30 53  1  0  0  0  0
M  END
> <i_m_stars>
0

> <r_user_dG.exp>
-10.141692

$$$$
18637-1
  -OEChem-05192314073D
 Structure written by MMmdl.
 53 54  0     1  0  0  0  0  0999 V2000
   24.0679   12.3974   30.2299 C   0  0  0  0  0  0  0  0  0  0  0  0
   23.3159   11.0783   30.4227 C   0  0  0  0  0  0  0  0  0  0  0  0
   22.2074   11.3318   31.2810 O   0  0  0  0  0  0  0  0  0  0  0  0
   21.4078   10.2815   31.6977 C   0  0  0  0  0  0  0  0  0  0  0  0
   21.7477    9.0318   31.2791 N   0  0  0  0  0  0  0  0  0  0  0  0
   20.9736    8.0017   31.6536 C   0  0  0  0  0  0  0  0  0  0  0  0
   19.8665    8.1461   32.4779 C   0  0  0  0  0  0  0  0  0  0  0  0
   19.5200    9.4177   32.8981 C   0  0  0  0  0  0  0  0  0  0  0  0
   18.3829    9.4988   33.6931 N   0  0  0  0  0  0  0  0  0  0  0  0
   20.2909   10.5235   32.5051 C   0  0  3  0  0  0  0  0  0  0  0  0
   19.9670   11.8935   32.8853 C   0  0  0  0  0  0  0  0  0  0  0  0
   19.7174   12.9843   33.1812 N   0  0  0  0  0  0  0  0  0  0  0  0
   21.4331    6.8194   31.1098 N   0  0  0  0  0  0  0  0  0  0  0  0
   20.8527    5.6189   31.0281 C   0  0  0  0  0  0  0  0  0  0  0  0
   19.7272    5.3573   31.4476 O   0  0  0  0  0  0  0  0  0  0  0  0
   21.6390    4.5479   30.2799 C   0  0  0  0  0  0  0  0  0  0  0  0
   23.0290    4.2861   30.8549 C   0  0  0  0  0  0  0  0  0  0  0  0
   24.1071    5.1197   30.5266 C   0  0  0  0  0  0  0  0  0  0  0  0
   23.8494    6.2028   29.7043 O   0  0  0  0  0  0  0  0  0  0  0  0
   24.8536    7.1989   29.5184 C   0  0  0  0  0  0  0  0  0  0  0  0
   25.3718    4.8226   31.0461 C   0  0  0  0  0  0  0  0  0  0  0  0
   25.5645    3.7381   31.9139 C   0  0  0  0  0  0  0  0  0  0  0  0
   24.4775    2.9179   32.2550 C   0  0  0  0  0  0  0  0  0  0  0  0
   23.2164    3.1999   31.7130 C   0  0  0  0  0  0  0  0  0  0  0  0
   24.7079    1.8722   33.1347 O   0  0  0  0  0  0  0  0  0  0  0  0
   23.7954    0.7759   33.1653 C   0  0  0  0  0  0  0  0  0  0  0  0
   26.8105    3.4129   32.4986 N   0  0  0  0  0  0  0  0  0  0  0  0
   28.0304    3.9580   32.3626 C   0  0  0  0  0  0  0  0  0  0  0  0
   28.3090    4.8809   31.6038 O   0  0  0  0  0  0  0  0  0  0  0  0
   29.1268    3.3864   33.2444 C   0  0  0  0  0  0  0  0  0  0  0  0
   24.9324   12.2341   29.5696 H   0  0  0  0  0  0  0  0  0  0  0  0
   23.3951   13.1399   29.7761 H   0  0  0  0  0  0  0  0  0  0  0  0
   24.4166   12.7665   31.2057 H   0  0  0  0  0  0  0  0  0  0  0  0
   22.9596   10.7050   29.4513 H   0  0  0  0  0  0  0  0  0  0  0  0
   23.9811   10.3316   30.8809 H   0  0  0  0  0  0  0  0  0  0  0  0
   19.2892    7.2862   32.7840 H   0  0  0  0  0  0  0  0  0  0  0  0
   18.1753   10.4413   33.9549 H   0  0  0  0  0  0  0  0  0  0  0  0
   20.9130   10.4158   33.4059 H   0  0  0  0  0  0  0  0  0  0  0  0
   19.5301    4.4435   31.2783 H   0  0  0  0  0  0  0  0  0  0  0  0
   21.0667    3.6092   30.3162 H   0  0  0  0  0  0  0  0  0  0  0  0
   21.7517    4.8684   29.2337 H   0  0  0  0  0  0  0  0  0  0  0  0
   24.4769    7.9778   28.8391 H   0  0  0  0  0  0  0  0  0  0  0  0
   25.1064    7.6502   30.4892 H   0  0  0  0  0  0  0  0  0  0  0  0
   25.7522    6.7368   29.0837 H   0  0  0  0  0  0  0  0  0  0  0  0
   26.0313    4.6517   30.1824 H   0  0  0  0  0  0  0  0  0  0  0  0
   25.7041    5.7195   31.5894 H   0  0  0  0  0  0  0  0  0  0  0  0
   22.3768    2.5680   31.9624 H   0  0  0  0  0  0  0  0  0  0  0  0
   24.1278    0.0422   33.9145 H   0  0  0  0  0  0  0  0  0  0  0  0
   22.7922    1.1413   33.4301 H   0  0  0  0  0  0  0  0  0  0  0  0
   23.7622    0.2989   32.1747 H   0  0  0  0  0  0  0  0  0  0  0  0
   30.0677    3.9238   33.0552 H   0  0  0  0  0  0  0  0  0  0  0  0
   28.8447    3.5020   34.3013 H   0  0  0  0  0  0  0  0  0  0  0  0
   29.2620    2.3190   33.0156 H   0  0  0  0  0  0  0  0  0  0  0  0
  1  2  1  0  0  0  0
  2  3  1  0  0  0  0
  3  4  1  0  0  0  0
  4 10  1  0  0  0  0
  4  5  2  0  0  0  0
  5  6  1  0  0  0  0
  6  7  2  0  0  0  0
  6 13  1  0  0  0  0
  7  8  1  0  0  0  0
  8  9  2  0  0  0  0
  8 10  1  0  0  0  0
 10 11  1  0  0  0  0
 11 12  3  0  0  0  0
 13 14  2  0  0  0  0
 14 15  1  0  0  0  0
 14 16  1  0  0  0  0
 16 17  1  0  0  0  0
 17 24  1  0  0  0  0
 17 18  2  0  0  0  0
 18 19  1  0  0  0  0
 18 21  1  0  0  0  0
 19 20  1  0  0  0  0
 21 22  1  0  0  0  0
 22 23  1  0  0  0  0
 22 27  2  0  0  0  0
 23 24  2  0  0  0  0
 23 25  1  0  0  0  0
 25 26  1  0  0  0  0
 27 28  1  0  0  0  0
 28 29  2  0  0  0  0
 28 30  1  0  0  0  0
  1 31  1  0  0  0  0
  1 32  1  0  0  0  0
  1 33  1  0  0  0  0
  2 34  1  0  0  0  0
  2 35  1  0  0  0  0
  7 36  1  0  0  0  0
  9 37  1  0  0  0  0
 10 38  1  0  0  0  0
 15 39  1  0  0  0  0
 16 40  1  0  0  0  0
 16 41  1  0  0  0  0
 20 42  1  0  0  0  0
 20 43  1  0  0  0  0
 20 44  1  0  0  0  0
 21 45  1  0  0  0  0
 21 46  1  0  0  0  0
 24 47  1  0  0  0  0
 26 48  1  0  0  0  0
 26 49  1  0  0  0  0
 26 50  1  0  0  0  0
 30 51  1  0  0  0  0
 30 52  1  0  0  0  0
 30 53  1  0  0  0  0
M  END
> <i_m_stars>
0

> <r_user_dG.exp>
-10.141692

$$$$
18637-1
  -OEChem-05192314073D
 Structure written by MMmdl.
 53 54  0     1  0  0  0  0  0999 V2000
   24.0679   12.3974   30.2299 C   0  0  0  0  0  0  0  0  0  0  0  0
   23.3159   11.0783   30.4227 C   0  0  0  0  0  0  0  0  0  0  0  0
   22.2074   11.3318   31.2810 O   0  0  0  0  0  0  0  0  0  0  0  0
   21.4078   10.2815   31.6977 C   0  0  0  0  0  0  0  0  0  0  0  0
   21.7477    9.0318   31.2791 N   0  0  0  0  0  0  0  0  0  0  0  0
   20.9736    8.0017   31.6536 C   0  0  0  0  0  0  0  0  0  0  0  0
   19.8665    8.1461   32.4779 C   0  0  0  0  0  0  0  0  0  0  0  0
   19.5200    9.4177   32.8981 C   0  0  0  0  0  0  0  0  0  0  0  0
   18.3829    9.4988   33.6931 N   0  0  0  0  0  0  0  0  0  0  0  0
   20.2909   10.5235   32.5051 C   0  0  0  0  0  0  0  0  0  0  0  0
   19.9670   11.8935   32.8853 C   0  0  0  0  0  0  0  0  0  0  0  0
   19.7174   12.9843   33.1812 N   0  0  0  0  0  0  0  0  0  0  0  0
   21.4331    6.8194   31.1098 N   0  0  0  0  0  0  0  0  0  0  0  0
   20.8527    5.6189   31.0281 C   0  0  0  0  0  0  0  0  0  0  0  0
   19.7272    5.3573   31.4476 O   0  0  0  0  0  0  0  0  0  0  0  0
   21.6390    4.5479   30.2799 C   0  0  0  0  0  0  0  0  0  0  0  0
   23.0290    4.2861   30.8549 C   0  0  3  0  0  0  0  0  0  0  0  0
   24.1071    5.1197   30.5266 C   0  0  0  0  0  0  0  0  0  0  0  0
   23.8494    6.2028   29.7043 O   0  0  0  0  0  0  0  0  0  0  0  0
   24.8536    7.1989   29.5184 C   0  0  0  0  0  0  0  0  0  0  0  0
   25.3718    4.8226   31.0461 C   0  0  0  0  0  0  0  0  0  0  0  0
   25.5645    3.7381   31.9139 C   0  0  0  0  0  0  0  0  0  0  0  0
   24.4775    2.9179   32.2550 C   0  0  0  0  0  0  0  0  0  0  0  0
   23.2164    3.1999   31.7130 C   0  0  0  0  0  0  0  0  0  0  0  0
   24.7079    1.8722   33.1347 O   0  0  0  0  0  0  0  0  0  0  0  0
   23.7954    0.7759   33.1653 C   0  0  0  0  0  0  0  0  0  0  0  0
   26.8105    3.4129   32.4986 N   0  0  0  0  0  0  0  0  0  0  0  0
   28.0304    3.9580   32.3626 C   0  0  0  0  0  0  0  0  0  0  0  0
   28.3090    4.8809   31.6038 O   0  0  0  0  0  0  0  0  0  0  0  0
   29.1268    3.3864   33.2444 C   0  0  0  0  0  0  0  0  0  0  0  0
   24.9324   12.2341   29.5696 H   0  0  0  0  0  0  0  0  0  0  0  0
   23.3951   13.1399   29.7761 H   0  0  0  0  0  0  0  0  0  0  0  0
   24.4166   12.7665   31.2057 H   0  0  0  0  0  0  0  0  0  0  0  0
   22.9596   10.7050   29.4513 H   0  0  0  0  0  0  0  0  0  0  0  0
   23.9811   10.3316   30.8809 H   0  0  0  0  0  0  0  0  0  0  0  0
   19.0018    7.7360   31.9357 H   0  0  0  0  0  0  0  0  0  0  0  0
   20.0523    7.5449   33.3801 H   0  0  0  0  0  0  0  0  0  0  0  0
   18.1753   10.4413   33.9549 H   0  0  0  0  0  0  0  0  0  0  0  0
   19.5301    4.4435   31.2783 H   0  0  0  0  0  0  0  0  0  0  0  0
   21.0667    3.6092   30.3162 H   0  0  0  0  0  0  0  0  0  0  0  0
   21.7517    4.8684   29.2337 H   0  0  0  0  0  0  0  0  0  0  0  0
   22.7942    4.9278   31.7169 H   0  0  0  0  0  0  0  0  0  0  0  0
   24.4769    7.9778   28.8391 H   0  0  0  0  0  0  0  0  0  0  0  0
   25.1064    7.6502   30.4892 H   0  0  0  0  0  0  0  0  0  0  0  0
   25.7522    6.7368   29.0837 H   0  0  0  0  0  0  0  0  0  0  0  0
   26.2151    5.4399   30.7737 H   0  0  0  0  0  0  0  0  0  0  0  0
   22.3768    2.5680   31.9624 H   0  0  0  0  0  0  0  0  0  0  0  0
   24.1278    0.0422   33.9145 H   0  0  0  0  0  0  0  0  0  0  0  0
   22.7922    1.1413   33.4301 H   0  0  0  0  0  0  0  0  0  0  0  0
   23.7622    0.2989   32.1747 H   0  0  0  0  0  0  0  0  0  0  0  0
   30.0677    3.9238   33.0552 H   0  0  0  0  0  0  0  0  0  0  0  0
   28.8447    3.5020   34.3013 H   0  0  0  0  0  0  0  0  0  0  0  0
   29.2620    2.3190   33.0156 H   0  0  0  0  0  0  0  0  0  0  0  0
  1  2  1  0  0  0  0
  2  3  1  0  0  0  0
  3  4  1  0  0  0  0
  4 10  2  0  0  0  0
  4  5  1  0  0  0  0
  5  6  2  0  0  0  0
  6  7  1  0  0  0  0
  6 13  1  0  0  0  0
  7  8  1  0  0  0  0
  8  9  2  0  0  0  0
  8 10  1  0  0  0  0
 10 11  1  0  0  0  0
 11 12  3  0  0  0  0
 13 14  2  0  0  0  0
 14 15  1  0  0  0  0
 14 16  1  0  0  0  0
 16 17  1  0  0  0  0
 17 24  1  0  0  0  0
 17 18  1  0  0  0  0
 18 19  1  0  0  0  0
 18 21  2  0  0  0  0
 19 20  1  0  0  0  0
 21 22  1  0  0  0  0
 22 23  1  0  0  0  0
 22 27  2  0  0  0  0
 23 24  2  0  0  0  0
 23 25  1  0  0  0  0
 25 26  1  0  0  0  0
 27 28  1  0  0  0  0
 28 29  2  0  0  0  0
 28 30  1  0  0  0  0
  1 31  1  0  0  0  0
  1 32  1  0  0  0  0
  1 33  1  0  0  0  0
  2 34  1  0  0  0  0
  2 35  1  0  0  0  0
  7 36  1  0  0  0  0
  7 37  1  0  0  0  0
  9 38  1  0  0  0  0
 15 39  1  0  0  0  0
 16 40  1  0  0  0  0
 16 41  1  0  0  0  0
 17 42  1  0  0  0  0
 20 43  1  0  0  0  0
 20 44  1  0  0  0  0
 20 45  1  0  0  0  0
 21 46  1  0  0  0  0
 24 47  1  0  0  0  0
 26 48  1  0  0  0  0
 26 49  1  0  0  0  0
 26 50  1  0  0  0  0
 30 51  1  0  0  0  0
 30 52  1  0  0  0  0
 30 53  1  0  0  0  0
M  END
> <i_m_stars>
0

> <r_user_dG.exp>
-10.141692

$$$$
18637-1
  -OEChem-05192314073D
 Structure written by MMmdl.
 53 54  0     1  0  0  0  0  0999 V2000
   24.0679   12.3974   30.2299 C   0  0  0  0  0  0  0  0  0  0  0  0
   23.3159   11.0783   30.4227 C   0  0  0  0  0  0  0  0  0  0  0  0
   22.2074   11.3318   31.2810 O   0  0  0  0  0  0  0  0  0  0  0  0
   21.4078   10.2815   31.6977 C   0  0  0  0  0  0  0  0  0  0  0  0
   21.7477    9.0318   31.2791 N   0  0  0  0  0  0  0  0  0  0  0  0
   20.9736    8.0017   31.6536 C   0  0  0  0  0  0  0  0  0  0  0  0
   19.8665    8.1461   32.4779 C   0  0  0  0  0  0  0  0  0  0  0  0
   19.5200    9.4177   32.8981 C   0  0  0  0  0  0  0  0  0  0  0  0
   18.3829    9.4988   33.6931 N   0  0  0  0  0  0  0  0  0  0  0  0
   20.2909   10.5235   32.5051 C   0  0  0  0  0  0  0  0  0  0  0  0
   19.9670   11.8935   32.8853 C   0  0  0  0  0  0  0  0  0  0  0  0
   19.7174   12.9843   33.1812 N   0  0  0  0  0  0  0  0  0  0  0  0
   21.4331    6.8194   31.1098 N   0  0  0  0  0  0  0  0  0  0  0  0
   20.8527    5.6189   31.0281 C   0  0  0  0  0  0  0  0  0  0  0  0
   19.7272    5.3573   31.4476 O   0  0  0  0  0  0  0  0  0  0  0  0
   21.6390    4.5479   30.2799 C   0  0  0  0  0  0  0  0  0  0  0  0
   23.0290    4.2861   30.8549 C   0  0  0  0  0  0  0  0  0  0  0  0
   24.1071    5.1197   30.5266 C   0  0  0  0  0  0  0  0  0  0  0  0
   23.8494    6.2028   29.7043 O   0  0  0  0  0  0  0  0  0  0  0  0
   24.8536    7.1989   29.5184 C   0  0  0  0  0  0  0  0  0  0  0  0
   25.3718    4.8226   31.0461 C   0  0  0  0  0  0  0  0  0  0  0  0
   25.5645    3.7381   31.9139 C   0  0  0  0  0  0  0  0  0  0  0  0
   24.4775    2.9179   32.2550 C   0  0  3  0  0  0  0  0  0  0  0  0
   23.2164    3.1999   31.7130 C   0  0  0  0  0  0  0  0  0  0  0  0
   24.7079    1.8722   33.1347 O   0  0  0  0  0  0  0  0  0  0  0  0
   23.7954    0.7759   33.1653 C   0  0  0  0  0  0  0  0  0  0  0  0
   26.8105    3.4129   32.4986 N   0  0  0  0  0  0  0  0  0  0  0  0
   28.0304    3.9580   32.3626 C   0  0  0  0  0  0  0  0  0  0  0  0
   28.3090    4.8809   31.6038 O   0  0  0  0  0  0  0  0  0  0  0  0
   29.1268    3.3864   33.2444 C   0  0  0  0  0  0  0  0  0  0  0  0
   24.9324   12.2341   29.5696 H   0  0  0  0  0  0  0  0  0  0  0  0
   23.3951   13.1399   29.7761 H   0  0  0  0  0  0  0  0  0  0  0  0
   24.4166   12.7665   31.2057 H   0  0  0  0  0  0  0  0  0  0  0  0
   22.9596   10.7050   29.4513 H   0  0  0  0  0  0  0  0  0  0  0  0
   23.9811   10.3316   30.8809 H   0  0  0  0  0  0  0  0  0  0  0  0
   19.0018    7.7360   31.9357 H   0  0  0  0  0  0  0  0  0  0  0  0
   20.0523    7.5449   33.3801 H   0  0  0  0  0  0  0  0  0  0  0  0
   18.1753   10.4413   33.9549 H   0  0  0  0  0  0  0  0  0  0  0  0
   19.5301    4.4435   31.2783 H   0  0  0  0  0  0  0  0  0  0  0  0
   21.0667    3.6092   30.3162 H   0  0  0  0  0  0  0  0  0  0  0  0
   21.7517    4.8684   29.2337 H   0  0  0  0  0  0  0  0  0  0  0  0
   24.4769    7.9778   28.8391 H   0  0  0  0  0  0  0  0  0  0  0  0
   25.1064    7.6502   30.4892 H   0  0  0  0  0  0  0  0  0  0  0  0
   25.7522    6.7368   29.0837 H   0  0  0  0  0  0  0  0  0  0  0  0
   26.2151    5.4399   30.7737 H   0  0  0  0  0  0  0  0  0  0  0  0
   24.7015    2.2581   31.4038 H   0  0  0  0  0  0  0  0  0  0  0  0
   22.3768    2.5680   31.9624 H   0  0  0  0  0  0  0  0  0  0  0  0
   24.1278    0.0422   33.9145 H   0  0  0  0  0  0  0  0  0  0  0  0
   22.7922    1.1413   33.4301 H   0  0  0  0  0  0  0  0  0  0  0  0
   23.7622    0.2989   32.1747 H   0  0  0  0  0  0  0  0  0  0  0  0
   30.0677    3.9238   33.0552 H   0  0  0  0  0  0  0  0  0  0  0  0
   28.8447    3.5020   34.3013 H   0  0  0  0  0  0  0  0  0  0  0  0
   29.2620    2.3190   33.0156 H   0  0  0  0  0  0  0  0  0  0  0  0
  1  2  1  0  0  0  0
  2  3  1  0  0  0  0
  3  4  1  0  0  0  0
  4 10  2  0  0  0  0
  4  5  1  0  0  0  0
  5  6  2  0  0  0  0
  6  7  1  0  0  0  0
  6 13  1  0  0  0  0
  7  8  1  0  0  0  0
  8  9  2  0  0  0  0
  8 10  1  0  0  0  0
 10 11  1  0  0  0  0
 11 12  3  0  0  0  0
 13 14  2  0  0  0  0
 14 15  1  0  0  0  0
 14 16  1  0  0  0  0
 16 17  1  0  0  0  0
 17 24  2  0  0  0  0
 17 18  1  0  0  0  0
 18 19  1  0  0  0  0
 18 21  2  0  0  0  0
 19 20  1  0  0  0  0
 21 22  1  0  0  0  0
 22 23  1  0  0  0  0
 22 27  2  0  0  0  0
 23 24  1  0  0  0  0
 23 25  1  0  0  0  0
 25 26  1  0  0  0  0
 27 28  1  0  0  0  0
 28 29  2  0  0  0  0
 28 30  1  0  0  0  0
  1 31  1  0  0  0  0
  1 32  1  0  0  0  0
  1 33  1  0  0  0  0
  2 34  1  0  0  0  0
  2 35  1  0  0  0  0
  7 36  1  0  0  0  0
  7 37  1  0  0  0  0
  9 38  1  0  0  0  0
 15 39  1  0  0  0  0
 16 40  1  0  0  0  0
 16 41  1  0  0  0  0
 20 42  1  0  0  0  0
 20 43  1  0  0  0  0
 20 44  1  0  0  0  0
 21 45  1  0  0  0  0
 23 46  1  0  0  0  0
 24 47  1  0  0  0  0
 26 48  1  0  0  0  0
 26 49  1  0  0  0  0
 26 50  1  0  0  0  0
 30 51  1  0  0  0  0
 30 52  1  0  0  0  0
 30 53  1  0  0  0  0
M  END
> <i_m_stars>
0

> <r_user_dG.exp>
-10.141692

$$$$
18637-1
  -OEChem-05192314073D
 Structure written by MMmdl.
 53 54  0     0  0  0  0  0  0999 V2000
   24.0679   12.3974   30.2299 C   0  0  0  0  0  0  0  0  0  0  0  0
   23.3159   11.0783   30.4227 C   0  0  0  0  0  0  0  0  0  0  0  0
   22.2074   11.3318   31.2810 O   0  0  0  0  0  0  0  0  0  0  0  0
   21.4078   10.2815   31.6977 C   0  0  0  0  0  0  0  0  0  0  0  0
   21.7477    9.0318   31.2791 N   0  0  0  0  0  0  0  0  0  0  0  0
   20.9736    8.0017   31.6536 C   0  0  0  0  0  0  0  0  0  0  0  0
   19.8665    8.1461   32.4779 C   0  0  0  0  0  0  0  0  0  0  0  0
   19.5200    9.4177   32.8981 C   0  0  0  0  0  0  0  0  0  0  0  0
   18.3829    9.4988   33.6931 N   0  0  0  0  0  0  0  0  0  0  0  0
   20.2909   10.5235   32.5051 C   0  0  0  0  0  0  0  0  0  0  0  0
   19.9670   11.8935   32.8853 C   0  0  0  0  0  0  0  0  0  0  0  0
   19.7174   12.9843   33.1812 N   0  0  0  0  0  0  0  0  0  0  0  0
   21.4331    6.8194   31.1098 N   0  0  0  0  0  0  0  0  0  0  0  0
   20.8527    5.6189   31.0281 C   0  0  0  0  0  0  0  0  0  0  0  0
   19.7272    5.3573   31.4476 O   0  0  0  0  0  0  0  0  0  0  0  0
   21.6390    4.5479   30.2799 C   0  0  0  0  0  0  0  0  0  0  0  0
   23.0290    4.2861   30.8549 C   0  0  0  0  0  0  0  0  0  0  0  0
   24.1071    5.1197   30.5266 C   0  0  0  0  0  0  0  0  0  0  0  0
   23.8494    6.2028   29.7043 O   0  0  0  0  0  0  0  0  0  0  0  0
   24.8536    7.1989   29.5184 C   0  0  0  0  0  0  0  0  0  0  0  0
   25.3718    4.8226   31.0461 C   0  0  0  0  0  0  0  0  0  0  0  0
   25.5645    3.7381   31.9139 C   0  0  0  0  0  0  0  0  0  0  0  0
   24.4775    2.9179   32.2550 C   0  0  0  0  0  0  0  0  0  0  0  0
   23.2164    3.1999   31.7130 C   0  0  0  0  0  0  0  0  0  0  0  0
   24.7079    1.8722   33.1347 O   0  0  0  0  0  0  0  0  0  0  0  0
   23.7954    0.7759   33.1653 C   0  0  0  0  0  0  0  0  0  0  0  0
   26.8105    3.4129   32.4986 N   0  0  0  0  0  0  0  0  0  0  0  0
   28.0304    3.9580   32.3626 C   0  0  0  0  0  0  0  0  0  0  0  0
   28.3090    4.8809   31.6038 O   0  0  0  0  0  0  0  0  0  0  0  0
   29.1268    3.3864   33.2444 C   0  0  0  0  0  0  0  0  0  0  0  0
   24.9324   12.2341   29.5696 H   0  0  0  0  0  0  0  0  0  0  0  0
   23.3951   13.1399   29.7761 H   0  0  0  0  0  0  0  0  0  0  0  0
   24.4166   12.7665   31.2057 H   0  0  0  0  0  0  0  0  0  0  0  0
   22.9596   10.7050   29.4513 H   0  0  0  0  0  0  0  0  0  0  0  0
   23.9811   10.3316   30.8809 H   0  0  0  0  0  0  0  0  0  0  0  0
   19.0018    7.7360   31.9357 H   0  0  0  0  0  0  0  0  0  0  0  0
   20.0523    7.5449   33.3801 H   0  0  0  0  0  0  0  0  0  0  0  0
   18.1753   10.4413   33.9549 H   0  0  0  0  0  0  0  0  0  0  0  0
   19.5301    4.4435   31.2783 H   0  0  0  0  0  0  0  0  0  0  0  0
   21.0667    3.6092   30.3162 H   0  0  0  0  0  0  0  0  0  0  0  0
   21.7517    4.8684   29.2337 H   0  0  0  0  0  0  0  0  0  0  0  0
   24.4769    7.9778   28.8391 H   0  0  0  0  0  0  0  0  0  0  0  0
   25.1064    7.6502   30.4892 H   0  0  0  0  0  0  0  0  0  0  0  0
   25.7522    6.7368   29.0837 H   0  0  0  0  0  0  0  0  0  0  0  0
   26.0313    4.6517   30.1824 H   0  0  0  0  0  0  0  0  0  0  0  0
   25.7041    5.7195   31.5894 H   0  0  0  0  0  0  0  0  0  0  0  0
   22.3768    2.5680   31.9624 H   0  0  0  0  0  0  0  0  0  0  0  0
   24.1278    0.0422   33.9145 H   0  0  0  0  0  0  0  0  0  0  0  0
   22.7922    1.1413   33.4301 H   0  0  0  0  0  0  0  0  0  0  0  0
   23.7622    0.2989   32.1747 H   0  0  0  0  0  0  0  0  0  0  0  0
   30.0677    3.9238   33.0552 H   0  0  0  0  0  0  0  0  0  0  0  0
   28.8447    3.5020   34.3013 H   0  0  0  0  0  0  0  0  0  0  0  0
   29.2620    2.3190   33.0156 H   0  0  0  0  0  0  0  0  0  0  0  0
  1  2  1  0  0  0  0
  2  3  1  0  0  0  0
  3  4  1  0  0  0  0
  4 10  2  0  0  0  0
  4  5  1  0  0  0  0
  5  6  2  0  0  0  0
  6  7  1  0  0  0  0
  6 13  1  0  0  0  0
  7  8  1  0  0  0  0
  8  9  2  0  0  0  0
  8 10  1  0  0  0  0
 10 11  1  0  0  0  0
 11 12  3  0  0  0  0
 13 14  2  0  0  0  0
 14 15  1  0  0  0  0
 14 16  1  0  0  0  0
 16 17  1  0  0  0  0
 17 24  1  0  0  0  0
 17 18  2  0  0  0  0
 18 19  1  0  0  0  0
 18 21  1  0  0  0  0
 19 20  1  0  0  0  0
 21 22  1  0  0  0  0
 22 23  1  0  0  0  0
 22 27  2  0  0  0  0
 23 24  2  0  0  0  0
 23 25  1  0  0  0  0
 25 26  1  0  0  0  0
 27 28  1  0  0  0  0
 28 29  2  0  0  0  0
 28 30  1  0  0  0  0
  1 31  1  0  0  0  0
  1 32  1  0  0  0  0
  1 33  1  0  0  0  0
  2 34  1  0  0  0  0
  2 35  1  0  0  0  0
  7 36  1  0  0  0  0
  7 37  1  0  0  0  0
  9 38  1  0  0  0  0
 15 39  1  0  0  0  0
 16 40  1  0  0  0  0
 16 41  1  0  0  0  0
 20 42  1  0  0  0  0
 20 43  1  0  0  0  0
 20 44  1  0  0  0  0
 21 45  1  0  0  0  0
 21 46  1  0  0  0  0
 24 47  1  0  0  0  0
 26 48  1  0  0  0  0
 26 49  1  0  0  0  0
 26 50  1  0  0  0  0
 30 51  1  0  0  0  0
 30 52  1  0  0  0  0
 30 53  1  0  0  0  0
M  END
> <i_m_stars>
0

> <r_user_dG.exp>
-10.141692

$$$$
