18630-1
  -OEChem-05192314073D
 Structure written by MMmdl.
 41 42  0     0  0  0  0  0  0999 V2000
   24.0212   12.2423   30.2763 C   0  0  0  0  0  0  0  0  0  0  0  0
   23.2929   10.9217   30.5380 C   0  0  0  0  0  0  0  0  0  0  0  0
   22.1435   11.2077   31.3313 O   0  0  0  0  0  0  0  0  0  0  0  0
   21.3312   10.1711   31.7577 C   0  0  0  0  0  0  0  0  0  0  0  0
   21.6809    8.9094   31.3858 N   0  0  0  0  0  0  0  0  0  0  0  0
   20.8904    7.8933   31.7600 C   0  0  0  0  0  0  0  0  0  0  0  0
   19.7538    8.0604   32.5352 C   0  0  0  0  0  0  0  0  0  0  0  0
   19.4031    9.3419   32.9176 C   0  0  0  0  0  0  0  0  0  0  0  0
   18.2457    9.4395   33.6789 N   0  0  0  0  0  0  0  0  0  0  0  0
   20.1936   10.4361   32.5290 C   0  0  0  0  0  0  0  0  0  0  0  0
   19.8748   11.8145   32.8832 C   0  0  0  0  0  0  0  0  0  0  0  0
   19.6299   12.9119   33.1596 N   0  0  0  0  0  0  0  0  0  0  0  0
   21.3867    6.6852   31.3195 N   0  0  0  0  0  0  0  0  0  0  0  0
   20.7626    5.5181   31.1286 C   0  0  0  0  0  0  0  0  0  0  0  0
   19.5491    5.3722   31.2624 O   0  0  0  0  0  0  0  0  0  0  0  0
   21.6082    4.3050   30.7113 C   0  0  0  0  0  0  0  0  0  0  0  0
   23.1035    4.5843   30.5577 C   0  0  0  0  0  0  0  0  0  0  0  0
   24.0149    4.0448   31.4691 C   0  0  0  0  0  0  0  0  0  0  0  0
   25.3756    4.3277   31.3494 C   0  0  0  0  0  0  0  0  0  0  0  0
   25.8350    5.1529   30.3201 C   0  0  0  0  0  0  0  0  0  0  0  0
   27.3129    5.4673   30.1984 C   0  0  0  0  0  0  0  0  0  0  0  0
   24.9278    5.6839   29.4014 C   0  0  0  0  0  0  0  0  0  0  0  0
   23.5681    5.4012   29.5204 C   0  0  0  0  0  0  0  0  0  0  0  0
   24.9156   12.0534   29.6644 H   0  0  0  0  0  0  0  0  0  0  0  0
   23.3504   12.9312   29.7421 H   0  0  0  0  0  0  0  0  0  0  0  0
   24.3209   12.6917   31.2345 H   0  0  0  0  0  0  0  0  0  0  0  0
   22.9858   10.4683   29.5840 H   0  0  0  0  0  0  0  0  0  0  0  0
   23.9562   10.2289   31.0765 H   0  0  0  0  0  0  0  0  0  0  0  0
   19.1571    7.2110   32.8331 H   0  0  0  0  0  0  0  0  0  0  0  0
   18.0751   10.3984   33.9056 H   0  0  0  0  0  0  0  0  0  0  0  0
   17.4727    9.0777   33.1579 H   0  0  0  0  0  0  0  0  0  0  0  0
   22.3646    6.6809   31.1104 H   0  0  0  0  0  0  0  0  0  0  0  0
   21.4834    3.5228   31.4746 H   0  0  0  0  0  0  0  0  0  0  0  0
   21.2280    3.9394   29.7460 H   0  0  0  0  0  0  0  0  0  0  0  0
   23.6652    3.4075   32.2678 H   0  0  0  0  0  0  0  0  0  0  0  0
   26.0766    3.9071   32.0552 H   0  0  0  0  0  0  0  0  0  0  0  0
   27.7976    4.7127   29.5614 H   0  0  0  0  0  0  0  0  0  0  0  0
   27.4400    6.4630   29.7485 H   0  0  0  0  0  0  0  0  0  0  0  0
   27.7738    5.4546   31.1971 H   0  0  0  0  0  0  0  0  0  0  0  0
   25.2797    6.3141   28.5980 H   0  0  0  0  0  0  0  0  0  0  0  0
   22.8692    5.8147   28.8084 H   0  0  0  0  0  0  0  0  0  0  0  0
  1  2  1  0  0  0  0
  2  3  1  0  0  0  0
  3  4  1  0  0  0  0
  4 10  2  0  0  0  0
  4  5  1  0  0  0  0
  5  6  2  0  0  0  0
  6  7  1  0  0  0  0
  6 13  1  0  0  0  0
  7  8  2  0  0  0  0
  8  9  1  0  0  0  0
  8 10  1  0  0  0  0
 10 11  1  0  0  0  0
 11 12  3  0  0  0  0
 13 14  1  0  0  0  0
 14 15  2  0  0  0  0
 14 16  1  0  0  0  0
 16 17  1  0  0  0  0
 17 23  2  0  0  0  0
 17 18  1  0  0  0  0
 18 19  2  0  0  0  0
 19 20  1  0  0  0  0
 20 21  1  0  0  0  0
 20 22  2  0  0  0  0
 22 23  1  0  0  0  0
  1 24  1  0  0  0  0
  1 25  1  0  0  0  0
  1 26  1  0  0  0  0
  2 27  1  0  0  0  0
  2 28  1  0  0  0  0
  7 29  1  0  0  0  0
  9 30  1  0  0  0  0
  9 31  1  0  0  0  0
 13 32  1  0  0  0  0
 16 33  1  0  0  0  0
 16 34  1  0  0  0  0
 18 35  1  0  0  0  0
 19 36  1  0  0  0  0
 21 37  1  0  0  0  0
 21 38  1  0  0  0  0
 21 39  1  0  0  0  0
 22 40  1  0  0  0  0
 23 41  1  0  0  0  0
M  END
> <i_m_stars>
0

> <r_user_dG.exp>
-9.142359

$$$$
18630-1
  -OEChem-05192314073D
 Structure written by MMmdl.
 41 42  0     0  0  0  0  0  0999 V2000
   24.0212   12.2423   30.2763 C   0  0  0  0  0  0  0  0  0  0  0  0
   23.2929   10.9217   30.5380 C   0  0  0  0  0  0  0  0  0  0  0  0
   22.1435   11.2077   31.3313 O   0  0  0  0  0  0  0  0  0  0  0  0
   21.3312   10.1711   31.7577 C   0  0  0  0  0  0  0  0  0  0  0  0
   21.6809    8.9094   31.3858 N   0  0  0  0  0  0  0  0  0  0  0  0
   20.8904    7.8933   31.7600 C   0  0  0  0  0  0  0  0  0  0  0  0
   19.7538    8.0604   32.5352 C   0  0  0  0  0  0  0  0  0  0  0  0
   19.4031    9.3419   32.9176 C   0  0  0  0  0  0  0  0  0  0  0  0
   18.2457    9.4395   33.6789 N   0  0  0  0  0  0  0  0  0  0  0  0
   20.1936   10.4361   32.5290 C   0  0  0  0  0  0  0  0  0  0  0  0
   19.8748   11.8145   32.8832 C   0  0  0  0  0  0  0  0  0  0  0  0
   19.6299   12.9119   33.1596 N   0  0  0  0  0  0  0  0  0  0  0  0
   21.3867    6.6852   31.3195 N   0  0  0  0  0  0  0  0  0  0  0  0
   20.7626    5.5181   31.1286 C   0  0  0  0  0  0  0  0  0  0  0  0
   19.5491    5.3722   31.2624 O   0  0  0  0  0  0  0  0  0  0  0  0
   21.6082    4.3050   30.7113 C   0  0  0  0  0  0  0  0  0  0  0  0
   23.1035    4.5843   30.5577 C   0  0  0  0  0  0  0  0  0  0  0  0
   24.0149    4.0448   31.4691 C   0  0  0  0  0  0  0  0  0  0  0  0
   25.3756    4.3277   31.3494 C   0  0  0  0  0  0  0  0  0  0  0  0
   25.8350    5.1529   30.3201 C   0  0  0  0  0  0  0  0  0  0  0  0
   27.3129    5.4673   30.1984 C   0  0  0  0  0  0  0  0  0  0  0  0
   24.9278    5.6839   29.4014 C   0  0  0  0  0  0  0  0  0  0  0  0
   23.5681    5.4012   29.5204 C   0  0  0  0  0  0  0  0  0  0  0  0
   24.9156   12.0534   29.6644 H   0  0  0  0  0  0  0  0  0  0  0  0
   23.3504   12.9312   29.7421 H   0  0  0  0  0  0  0  0  0  0  0  0
   24.3209   12.6917   31.2345 H   0  0  0  0  0  0  0  0  0  0  0  0
   22.9858   10.4683   29.5840 H   0  0  0  0  0  0  0  0  0  0  0  0
   23.9562   10.2289   31.0765 H   0  0  0  0  0  0  0  0  0  0  0  0
   19.1571    7.2110   32.8331 H   0  0  0  0  0  0  0  0  0  0  0  0
   18.0751   10.3984   33.9056 H   0  0  0  0  0  0  0  0  0  0  0  0
   17.4727    9.0777   33.1579 H   0  0  0  0  0  0  0  0  0  0  0  0
   19.3162    4.4694   31.0800 H   0  0  0  0  0  0  0  0  0  0  0  0
   21.4834    3.5228   31.4746 H   0  0  0  0  0  0  0  0  0  0  0  0
   21.2280    3.9394   29.7460 H   0  0  0  0  0  0  0  0  0  0  0  0
   23.6652    3.4075   32.2678 H   0  0  0  0  0  0  0  0  0  0  0  0
   26.0766    3.9071   32.0552 H   0  0  0  0  0  0  0  0  0  0  0  0
   27.7976    4.7127   29.5614 H   0  0  0  0  0  0  0  0  0  0  0  0
   27.4400    6.4630   29.7485 H   0  0  0  0  0  0  0  0  0  0  0  0
   27.7738    5.4546   31.1971 H   0  0  0  0  0  0  0  0  0  0  0  0
   25.2797    6.3141   28.5980 H   0  0  0  0  0  0  0  0  0  0  0  0
   22.8692    5.8147   28.8084 H   0  0  0  0  0  0  0  0  0  0  0  0
  1  2  1  0  0  0  0
  2  3  1  0  0  0  0
  3  4  1  0  0  0  0
  4 10  2  0  0  0  0
  4  5  1  0  0  0  0
  5  6  2  0  0  0  0
  6  7  1  0  0  0  0
  6 13  1  0  0  0  0
  7  8  2  0  0  0  0
  8  9  1  0  0  0  0
  8 10  1  0  0  0  0
 10 11  1  0  0  0  0
 11 12  3  0  0  0  0
 13 14  2  0  0  0  0
 14 15  1  0  0  0  0
 14 16  1  0  0  0  0
 16 17  1  0  0  0  0
 17 23  2  0  0  0  0
 17 18  1  0  0  0  0
 18 19  2  0  0  0  0
 19 20  1  0  0  0  0
 20 21  1  0  0  0  0
 20 22  2  0  0  0  0
 22 23  1  0  0  0  0
  1 24  1  0  0  0  0
  1 25  1  0  0  0  0
  1 26  1  0  0  0  0
  2 27  1  0  0  0  0
  2 28  1  0  0  0  0
  7 29  1  0  0  0  0
  9 30  1  0  0  0  0
  9 31  1  0  0  0  0
 15 32  1  0  0  0  0
 16 33  1  0  0  0  0
 16 34  1  0  0  0  0
 18 35  1  0  0  0  0
 19 36  1  0  0  0  0
 21 37  1  0  0  0  0
 21 38  1  0  0  0  0
 21 39  1  0  0  0  0
 22 40  1  0  0  0  0
 23 41  1  0  0  0  0
M  END
> <i_m_stars>
0

> <r_user_dG.exp>
-9.142359

$$$$
18630-1
  -OEChem-05192314073D
 Structure written by MMmdl.
 41 42  0     0  0  0  0  0  0999 V2000
   24.0212   12.2423   30.2763 C   0  0  0  0  0  0  0  0  0  0  0  0
   23.2929   10.9217   30.5380 C   0  0  0  0  0  0  0  0  0  0  0  0
   22.1435   11.2077   31.3313 O   0  0  0  0  0  0  0  0  0  0  0  0
   21.3312   10.1711   31.7577 C   0  0  0  0  0  0  0  0  0  0  0  0
   21.6809    8.9094   31.3858 N   0  0  0  0  0  0  0  0  0  0  0  0
   20.8904    7.8933   31.7600 C   0  0  0  0  0  0  0  0  0  0  0  0
   19.7538    8.0604   32.5352 C   0  0  0  0  0  0  0  0  0  0  0  0
   19.4031    9.3419   32.9176 C   0  0  0  0  0  0  0  0  0  0  0  0
   18.2457    9.4395   33.6789 N   0  0  0  0  0  0  0  0  0  0  0  0
   20.1936   10.4361   32.5290 C   0  0  0  0  0  0  0  0  0  0  0  0
   19.8748   11.8145   32.8832 C   0  0  0  0  0  0  0  0  0  0  0  0
   19.6299   12.9119   33.1596 N   0  0  0  0  0  0  0  0  0  0  0  0
   21.3867    6.6852   31.3195 N   0  0  0  0  0  0  0  0  0  0  0  0
   20.7626    5.5181   31.1286 C   0  0  0  0  0  0  0  0  0  0  0  0
   19.5491    5.3722   31.2624 O   0  0  0  0  0  0  0  0  0  0  0  0
   21.6082    4.3050   30.7113 C   0  0  0  0  0  0  0  0  0  0  0  0
   23.1035    4.5843   30.5577 C   0  0  0  0  0  0  0  0  0  0  0  0
   24.0149    4.0448   31.4691 C   0  0  0  0  0  0  0  0  0  0  0  0
   25.3756    4.3277   31.3494 C   0  0  0  0  0  0  0  0  0  0  0  0
   25.8350    5.1529   30.3201 C   0  0  0  0  0  0  0  0  0  0  0  0
   27.3129    5.4673   30.1984 C   0  0  0  0  0  0  0  0  0  0  0  0
   24.9278    5.6839   29.4014 C   0  0  0  0  0  0  0  0  0  0  0  0
   23.5681    5.4012   29.5204 C   0  0  0  0  0  0  0  0  0  0  0  0
   24.9156   12.0534   29.6644 H   0  0  0  0  0  0  0  0  0  0  0  0
   23.3504   12.9312   29.7421 H   0  0  0  0  0  0  0  0  0  0  0  0
   24.3209   12.6917   31.2345 H   0  0  0  0  0  0  0  0  0  0  0  0
   22.9858   10.4683   29.5840 H   0  0  0  0  0  0  0  0  0  0  0  0
   23.9562   10.2289   31.0765 H   0  0  0  0  0  0  0  0  0  0  0  0
   22.5069    8.7444   30.8468 H   0  0  0  0  0  0  0  0  0  0  0  0
   19.1571    7.2110   32.8331 H   0  0  0  0  0  0  0  0  0  0  0  0
   18.0360   10.3866   33.9220 H   0  0  0  0  0  0  0  0  0  0  0  0
   22.3646    6.6809   31.1104 H   0  0  0  0  0  0  0  0  0  0  0  0
   21.4834    3.5228   31.4746 H   0  0  0  0  0  0  0  0  0  0  0  0
   21.2280    3.9394   29.7460 H   0  0  0  0  0  0  0  0  0  0  0  0
   23.6652    3.4075   32.2678 H   0  0  0  0  0  0  0  0  0  0  0  0
   26.0766    3.9071   32.0552 H   0  0  0  0  0  0  0  0  0  0  0  0
   27.7976    4.7127   29.5614 H   0  0  0  0  0  0  0  0  0  0  0  0
   27.4400    6.4630   29.7485 H   0  0  0  0  0  0  0  0  0  0  0  0
   27.7738    5.4546   31.1971 H   0  0  0  0  0  0  0  0  0  0  0  0
   25.2797    6.3141   28.5980 H   0  0  0  0  0  0  0  0  0  0  0  0
   22.8692    5.8147   28.8084 H   0  0  0  0  0  0  0  0  0  0  0  0
  1  2  1  0  0  0  0
  2  3  1  0  0  0  0
  3  4  1  0  0  0  0
  4 10  2  0  0  0  0
  4  5  1  0  0  0  0
  5  6  1  0  0  0  0
  6  7  2  0  0  0  0
  6 13  1  0  0  0  0
  7  8  1  0  0  0  0
  8  9  2  0  0  0  0
  8 10  1  0  0  0  0
 10 11  1  0  0  0  0
 11 12  3  0  0  0  0
 13 14  1  0  0  0  0
 14 15  2  0  0  0  0
 14 16  1  0  0  0  0
 16 17  1  0  0  0  0
 17 23  2  0  0  0  0
 17 18  1  0  0  0  0
 18 19  2  0  0  0  0
 19 20  1  0  0  0  0
 20 21  1  0  0  0  0
 20 22  2  0  0  0  0
 22 23  1  0  0  0  0
  1 24  1  0  0  0  0
  1 25  1  0  0  0  0
  1 26  1  0  0  0  0
  2 27  1  0  0  0  0
  2 28  1  0  0  0  0
  5 29  1  0  0  0  0
  7 30  1  0  0  0  0
  9 31  1  0  0  0  0
 13 32  1  0  0  0  0
 16 33  1  0  0  0  0
 16 34  1  0  0  0  0
 18 35  1  0  0  0  0
 19 36  1  0  0  0  0
 21 37  1  0  0  0  0
 21 38  1  0  0  0  0
 21 39  1  0  0  0  0
 22 40  1  0  0  0  0
 23 41  1  0  0  0  0
M  END
> <i_m_stars>
0

> <r_user_dG.exp>
-9.142359

$$$$
18630-1
  -OEChem-05192314073D
 Structure written by MMmdl.
 41 42  0     0  0  0  0  0  0999 V2000
   24.0212   12.2423   30.2763 C   0  0  0  0  0  0  0  0  0  0  0  0
   23.2929   10.9217   30.5380 C   0  0  0  0  0  0  0  0  0  0  0  0
   22.1435   11.2077   31.3313 O   0  0  0  0  0  0  0  0  0  0  0  0
   21.3312   10.1711   31.7577 C   0  0  0  0  0  0  0  0  0  0  0  0
   21.6809    8.9094   31.3858 N   0  0  0  0  0  0  0  0  0  0  0  0
   20.8904    7.8933   31.7600 C   0  0  0  0  0  0  0  0  0  0  0  0
   19.7538    8.0604   32.5352 C   0  0  0  0  0  0  0  0  0  0  0  0
   19.4031    9.3419   32.9176 C   0  0  0  0  0  0  0  0  0  0  0  0
   18.2457    9.4395   33.6789 N   0  0  0  0  0  0  0  0  0  0  0  0
   20.1936   10.4361   32.5290 C   0  0  0  0  0  0  0  0  0  0  0  0
   19.8748   11.8145   32.8832 C   0  0  0  0  0  0  0  0  0  0  0  0
   19.6299   12.9119   33.1596 N   0  0  0  0  0  0  0  0  0  0  0  0
   21.3867    6.6852   31.3195 N   0  0  0  0  0  0  0  0  0  0  0  0
   20.7626    5.5181   31.1286 C   0  0  0  0  0  0  0  0  0  0  0  0
   19.5491    5.3722   31.2624 O   0  0  0  0  0  0  0  0  0  0  0  0
   21.6082    4.3050   30.7113 C   0  0  0  0  0  0  0  0  0  0  0  0
   23.1035    4.5843   30.5577 C   0  0  0  0  0  0  0  0  0  0  0  0
   24.0149    4.0448   31.4691 C   0  0  0  0  0  0  0  0  0  0  0  0
   25.3756    4.3277   31.3494 C   0  0  0  0  0  0  0  0  0  0  0  0
   25.8350    5.1529   30.3201 C   0  0  0  0  0  0  0  0  0  0  0  0
   27.3129    5.4673   30.1984 C   0  0  0  0  0  0  0  0  0  0  0  0
   24.9278    5.6839   29.4014 C   0  0  0  0  0  0  0  0  0  0  0  0
   23.5681    5.4012   29.5204 C   0  0  0  0  0  0  0  0  0  0  0  0
   24.9156   12.0534   29.6644 H   0  0  0  0  0  0  0  0  0  0  0  0
   23.3504   12.9312   29.7421 H   0  0  0  0  0  0  0  0  0  0  0  0
   24.3209   12.6917   31.2345 H   0  0  0  0  0  0  0  0  0  0  0  0
   22.9858   10.4683   29.5840 H   0  0  0  0  0  0  0  0  0  0  0  0
   23.9562   10.2289   31.0765 H   0  0  0  0  0  0  0  0  0  0  0  0
   22.5069    8.7444   30.8468 H   0  0  0  0  0  0  0  0  0  0  0  0
   19.1571    7.2110   32.8331 H   0  0  0  0  0  0  0  0  0  0  0  0
   18.0751   10.3984   33.9056 H   0  0  0  0  0  0  0  0  0  0  0  0
   17.4727    9.0777   33.1579 H   0  0  0  0  0  0  0  0  0  0  0  0
   21.4834    3.5228   31.4746 H   0  0  0  0  0  0  0  0  0  0  0  0
   21.2280    3.9394   29.7460 H   0  0  0  0  0  0  0  0  0  0  0  0
   23.6652    3.4075   32.2678 H   0  0  0  0  0  0  0  0  0  0  0  0
   26.0766    3.9071   32.0552 H   0  0  0  0  0  0  0  0  0  0  0  0
   27.7976    4.7127   29.5614 H   0  0  0  0  0  0  0  0  0  0  0  0
   27.4400    6.4630   29.7485 H   0  0  0  0  0  0  0  0  0  0  0  0
   27.7738    5.4546   31.1971 H   0  0  0  0  0  0  0  0  0  0  0  0
   25.2797    6.3141   28.5980 H   0  0  0  0  0  0  0  0  0  0  0  0
   22.8692    5.8147   28.8084 H   0  0  0  0  0  0  0  0  0  0  0  0
  1  2  1  0  0  0  0
  2  3  1  0  0  0  0
  3  4  1  0  0  0  0
  4 10  2  0  0  0  0
  4  5  1  0  0  0  0
  5  6  1  0  0  0  0
  6  7  1  0  0  0  0
  6 13  2  0  0  0  0
  7  8  2  0  0  0  0
  8  9  1  0  0  0  0
  8 10  1  0  0  0  0
 10 11  1  0  0  0  0
 11 12  3  0  0  0  0
 13 14  1  0  0  0  0
 14 15  2  0  0  0  0
 14 16  1  0  0  0  0
 16 17  1  0  0  0  0
 17 23  2  0  0  0  0
 17 18  1  0  0  0  0
 18 19  2  0  0  0  0
 19 20  1  0  0  0  0
 20 21  1  0  0  0  0
 20 22  2  0  0  0  0
 22 23  1  0  0  0  0
  1 24  1  0  0  0  0
  1 25  1  0  0  0  0
  1 26  1  0  0  0  0
  2 27  1  0  0  0  0
  2 28  1  0  0  0  0
  5 29  1  0  0  0  0
  7 30  1  0  0  0  0
  9 31  1  0  0  0  0
  9 32  1  0  0  0  0
 16 33  1  0  0  0  0
 16 34  1  0  0  0  0
 18 35  1  0  0  0  0
 19 36  1  0  0  0  0
 21 37  1  0  0  0  0
 21 38  1  0  0  0  0
 21 39  1  0  0  0  0
 22 40  1  0  0  0  0
 23 41  1  0  0  0  0
M  END
> <i_m_stars>
0

> <r_user_dG.exp>
-9.142359

$$$$
18630-1
  -OEChem-05192314073D
 Structure written by MMmdl.
 41 42  0     0  0  0  0  0  0999 V2000
   24.0212   12.2423   30.2763 C   0  0  0  0  0  0  0  0  0  0  0  0
   23.2929   10.9217   30.5380 C   0  0  0  0  0  0  0  0  0  0  0  0
   22.1435   11.2077   31.3313 O   0  0  0  0  0  0  0  0  0  0  0  0
   21.3312   10.1711   31.7577 C   0  0  0  0  0  0  0  0  0  0  0  0
   21.6809    8.9094   31.3858 N   0  0  0  0  0  0  0  0  0  0  0  0
   20.8904    7.8933   31.7600 C   0  0  0  0  0  0  0  0  0  0  0  0
   19.7538    8.0604   32.5352 C   0  0  0  0  0  0  0  0  0  0  0  0
   19.4031    9.3419   32.9176 C   0  0  0  0  0  0  0  0  0  0  0  0
   18.2457    9.4395   33.6789 N   0  0  0  0  0  0  0  0  0  0  0  0
   20.1936   10.4361   32.5290 C   0  0  0  0  0  0  0  0  0  0  0  0
   19.8748   11.8145   32.8832 C   0  0  0  0  0  0  0  0  0  0  0  0
   19.6299   12.9119   33.1596 N   0  0  0  0  0  0  0  0  0  0  0  0
   21.3867    6.6852   31.3195 N   0  0  0  0  0  0  0  0  0  0  0  0
   20.7626    5.5181   31.1286 C   0  0  0  0  0  0  0  0  0  0  0  0
   19.5491    5.3722   31.2624 O   0  0  0  0  0  0  0  0  0  0  0  0
   21.6082    4.3050   30.7113 C   0  0  0  0  0  0  0  0  0  0  0  0
   23.1035    4.5843   30.5577 C   0  0  0  0  0  0  0  0  0  0  0  0
   24.0149    4.0448   31.4691 C   0  0  0  0  0  0  0  0  0  0  0  0
   25.3756    4.3277   31.3494 C   0  0  0  0  0  0  0  0  0  0  0  0
   25.8350    5.1529   30.3201 C   0  0  0  0  0  0  0  0  0  0  0  0
   27.3129    5.4673   30.1984 C   0  0  0  0  0  0  0  0  0  0  0  0
   24.9278    5.6839   29.4014 C   0  0  0  0  0  0  0  0  0  0  0  0
   23.5681    5.4012   29.5204 C   0  0  0  0  0  0  0  0  0  0  0  0
   24.9156   12.0534   29.6644 H   0  0  0  0  0  0  0  0  0  0  0  0
   23.3504   12.9312   29.7421 H   0  0  0  0  0  0  0  0  0  0  0  0
   24.3209   12.6917   31.2345 H   0  0  0  0  0  0  0  0  0  0  0  0
   22.9858   10.4683   29.5840 H   0  0  0  0  0  0  0  0  0  0  0  0
   23.9562   10.2289   31.0765 H   0  0  0  0  0  0  0  0  0  0  0  0
   22.5069    8.7444   30.8468 H   0  0  0  0  0  0  0  0  0  0  0  0
   19.1571    7.2110   32.8331 H   0  0  0  0  0  0  0  0  0  0  0  0
   18.0360   10.3866   33.9220 H   0  0  0  0  0  0  0  0  0  0  0  0
   19.3162    4.4694   31.0800 H   0  0  0  0  0  0  0  0  0  0  0  0
   21.4834    3.5228   31.4746 H   0  0  0  0  0  0  0  0  0  0  0  0
   21.2280    3.9394   29.7460 H   0  0  0  0  0  0  0  0  0  0  0  0
   23.6652    3.4075   32.2678 H   0  0  0  0  0  0  0  0  0  0  0  0
   26.0766    3.9071   32.0552 H   0  0  0  0  0  0  0  0  0  0  0  0
   27.7976    4.7127   29.5614 H   0  0  0  0  0  0  0  0  0  0  0  0
   27.4400    6.4630   29.7485 H   0  0  0  0  0  0  0  0  0  0  0  0
   27.7738    5.4546   31.1971 H   0  0  0  0  0  0  0  0  0  0  0  0
   25.2797    6.3141   28.5980 H   0  0  0  0  0  0  0  0  0  0  0  0
   22.8692    5.8147   28.8084 H   0  0  0  0  0  0  0  0  0  0  0  0
  1  2  1  0  0  0  0
  2  3  1  0  0  0  0
  3  4  1  0  0  0  0
  4 10  2  0  0  0  0
  4  5  1  0  0  0  0
  5  6  1  0  0  0  0
  6  7  2  0  0  0  0
  6 13  1  0  0  0  0
  7  8  1  0  0  0  0
  8  9  2  0  0  0  0
  8 10  1  0  0  0  0
 10 11  1  0  0  0  0
 11 12  3  0  0  0  0
 13 14  2  0  0  0  0
 14 15  1  0  0  0  0
 14 16  1  0  0  0  0
 16 17  1  0  0  0  0
 17 23  2  0  0  0  0
 17 18  1  0  0  0  0
 18 19  2  0  0  0  0
 19 20  1  0  0  0  0
 20 21  1  0  0  0  0
 20 22  2  0  0  0  0
 22 23  1  0  0  0  0
  1 24  1  0  0  0  0
  1 25  1  0  0  0  0
  1 26  1  0  0  0  0
  2 27  1  0  0  0  0
  2 28  1  0  0  0  0
  5 29  1  0  0  0  0
  7 30  1  0  0  0  0
  9 31  1  0  0  0  0
 15 32  1  0  0  0  0
 16 33  1  0  0  0  0
 16 34  1  0  0  0  0
 18 35  1  0  0  0  0
 19 36  1  0  0  0  0
 21 37  1  0  0  0  0
 21 38  1  0  0  0  0
 21 39  1  0  0  0  0
 22 40  1  0  0  0  0
 23 41  1  0  0  0  0
M  END
> <i_m_stars>
0

> <r_user_dG.exp>
-9.142359

$$$$
18630-1
  -OEChem-05192314073D
 Structure written by MMmdl.
 41 42  0     1  0  0  0  0  0999 V2000
   24.0212   12.2423   30.2763 C   0  0  0  0  0  0  0  0  0  0  0  0
   23.2929   10.9217   30.5380 C   0  0  0  0  0  0  0  0  0  0  0  0
   22.1435   11.2077   31.3313 O   0  0  0  0  0  0  0  0  0  0  0  0
   21.3312   10.1711   31.7577 C   0  0  0  0  0  0  0  0  0  0  0  0
   21.6809    8.9094   31.3858 N   0  0  0  0  0  0  0  0  0  0  0  0
   20.8904    7.8933   31.7600 C   0  0  0  0  0  0  0  0  0  0  0  0
   19.7538    8.0604   32.5352 C   0  0  0  0  0  0  0  0  0  0  0  0
   19.4031    9.3419   32.9176 C   0  0  0  0  0  0  0  0  0  0  0  0
   18.2457    9.4395   33.6789 N   0  0  0  0  0  0  0  0  0  0  0  0
   20.1936   10.4361   32.5290 C   0  0  3  0  0  0  0  0  0  0  0  0
   19.8748   11.8145   32.8832 C   0  0  0  0  0  0  0  0  0  0  0  0
   19.6299   12.9119   33.1596 N   0  0  0  0  0  0  0  0  0  0  0  0
   21.3867    6.6852   31.3195 N   0  0  0  0  0  0  0  0  0  0  0  0
   20.7626    5.5181   31.1286 C   0  0  0  0  0  0  0  0  0  0  0  0
   19.5491    5.3722   31.2624 O   0  0  0  0  0  0  0  0  0  0  0  0
   21.6082    4.3050   30.7113 C   0  0  0  0  0  0  0  0  0  0  0  0
   23.1035    4.5843   30.5577 C   0  0  0  0  0  0  0  0  0  0  0  0
   24.0149    4.0448   31.4691 C   0  0  0  0  0  0  0  0  0  0  0  0
   25.3756    4.3277   31.3494 C   0  0  0  0  0  0  0  0  0  0  0  0
   25.8350    5.1529   30.3201 C   0  0  0  0  0  0  0  0  0  0  0  0
   27.3129    5.4673   30.1984 C   0  0  0  0  0  0  0  0  0  0  0  0
   24.9278    5.6839   29.4014 C   0  0  0  0  0  0  0  0  0  0  0  0
   23.5681    5.4012   29.5204 C   0  0  0  0  0  0  0  0  0  0  0  0
   24.9156   12.0534   29.6644 H   0  0  0  0  0  0  0  0  0  0  0  0
   23.3504   12.9312   29.7421 H   0  0  0  0  0  0  0  0  0  0  0  0
   24.3209   12.6917   31.2345 H   0  0  0  0  0  0  0  0  0  0  0  0
   22.9858   10.4683   29.5840 H   0  0  0  0  0  0  0  0  0  0  0  0
   23.9562   10.2289   31.0765 H   0  0  0  0  0  0  0  0  0  0  0  0
   18.9079    7.6476   31.9659 H   0  0  0  0  0  0  0  0  0  0  0  0
   19.8979    7.4742   33.4548 H   0  0  0  0  0  0  0  0  0  0  0  0
   18.0360   10.3866   33.9220 H   0  0  0  0  0  0  0  0  0  0  0  0
   20.7898   10.3351   33.4479 H   0  0  0  0  0  0  0  0  0  0  0  0
   21.4834    3.5228   31.4746 H   0  0  0  0  0  0  0  0  0  0  0  0
   21.2280    3.9394   29.7460 H   0  0  0  0  0  0  0  0  0  0  0  0
   23.6652    3.4075   32.2678 H   0  0  0  0  0  0  0  0  0  0  0  0
   26.0766    3.9071   32.0552 H   0  0  0  0  0  0  0  0  0  0  0  0
   27.7976    4.7127   29.5614 H   0  0  0  0  0  0  0  0  0  0  0  0
   27.4400    6.4630   29.7485 H   0  0  0  0  0  0  0  0  0  0  0  0
   27.7738    5.4546   31.1971 H   0  0  0  0  0  0  0  0  0  0  0  0
   25.2797    6.3141   28.5980 H   0  0  0  0  0  0  0  0  0  0  0  0
   22.8692    5.8147   28.8084 H   0  0  0  0  0  0  0  0  0  0  0  0
  1  2  1  0  0  0  0
  2  3  1  0  0  0  0
  3  4  1  0  0  0  0
  4 10  1  0  0  0  0
  4  5  2  0  0  0  0
  5  6  1  0  0  0  0
  6  7  1  0  0  0  0
  6 13  2  0  0  0  0
  7  8  1  0  0  0  0
  8  9  2  0  0  0  0
  8 10  1  0  0  0  0
 10 11  1  0  0  0  0
 11 12  3  0  0  0  0
 13 14  1  0  0  0  0
 14 15  2  0  0  0  0
 14 16  1  0  0  0  0
 16 17  1  0  0  0  0
 17 23  2  0  0  0  0
 17 18  1  0  0  0  0
 18 19  2  0  0  0  0
 19 20  1  0  0  0  0
 20 21  1  0  0  0  0
 20 22  2  0  0  0  0
 22 23  1  0  0  0  0
  1 24  1  0  0  0  0
  1 25  1  0  0  0  0
  1 26  1  0  0  0  0
  2 27  1  0  0  0  0
  2 28  1  0  0  0  0
  7 29  1  0  0  0  0
  7 30  1  0  0  0  0
  9 31  1  0  0  0  0
 10 32  1  0  0  0  0
 16 33  1  0  0  0  0
 16 34  1  0  0  0  0
 18 35  1  0  0  0  0
 19 36  1  0  0  0  0
 21 37  1  0  0  0  0
 21 38  1  0  0  0  0
 21 39  1  0  0  0  0
 22 40  1  0  0  0  0
 23 41  1  0  0  0  0
M  END
> <i_m_stars>
0

> <r_user_dG.exp>
-9.142359

$$$$
18630-1
  -OEChem-05192314073D
 Structure written by MMmdl.
 41 42  0     1  0  0  0  0  0999 V2000
   24.0212   12.2423   30.2763 C   0  0  0  0  0  0  0  0  0  0  0  0
   23.2929   10.9217   30.5380 C   0  0  0  0  0  0  0  0  0  0  0  0
   22.1435   11.2077   31.3313 O   0  0  0  0  0  0  0  0  0  0  0  0
   21.3312   10.1711   31.7577 C   0  0  0  0  0  0  0  0  0  0  0  0
   21.6809    8.9094   31.3858 N   0  0  0  0  0  0  0  0  0  0  0  0
   20.8904    7.8933   31.7600 C   0  0  0  0  0  0  0  0  0  0  0  0
   19.7538    8.0604   32.5352 C   0  0  0  0  0  0  0  0  0  0  0  0
   19.4031    9.3419   32.9176 C   0  0  0  0  0  0  0  0  0  0  0  0
   18.2457    9.4395   33.6789 N   0  0  0  0  0  0  0  0  0  0  0  0
   20.1936   10.4361   32.5290 C   0  0  3  0  0  0  0  0  0  0  0  0
   19.8748   11.8145   32.8832 C   0  0  0  0  0  0  0  0  0  0  0  0
   19.6299   12.9119   33.1596 N   0  0  0  0  0  0  0  0  0  0  0  0
   21.3867    6.6852   31.3195 N   0  0  0  0  0  0  0  0  0  0  0  0
   20.7626    5.5181   31.1286 C   0  0  0  0  0  0  0  0  0  0  0  0
   19.5491    5.3722   31.2624 O   0  0  0  0  0  0  0  0  0  0  0  0
   21.6082    4.3050   30.7113 C   0  0  0  0  0  0  0  0  0  0  0  0
   23.1035    4.5843   30.5577 C   0  0  0  0  0  0  0  0  0  0  0  0
   24.0149    4.0448   31.4691 C   0  0  0  0  0  0  0  0  0  0  0  0
   25.3756    4.3277   31.3494 C   0  0  0  0  0  0  0  0  0  0  0  0
   25.8350    5.1529   30.3201 C   0  0  0  0  0  0  0  0  0  0  0  0
   27.3129    5.4673   30.1984 C   0  0  0  0  0  0  0  0  0  0  0  0
   24.9278    5.6839   29.4014 C   0  0  0  0  0  0  0  0  0  0  0  0
   23.5681    5.4012   29.5204 C   0  0  0  0  0  0  0  0  0  0  0  0
   24.9156   12.0534   29.6644 H   0  0  0  0  0  0  0  0  0  0  0  0
   23.3504   12.9312   29.7421 H   0  0  0  0  0  0  0  0  0  0  0  0
   24.3209   12.6917   31.2345 H   0  0  0  0  0  0  0  0  0  0  0  0
   22.9858   10.4683   29.5840 H   0  0  0  0  0  0  0  0  0  0  0  0
   23.9562   10.2289   31.0765 H   0  0  0  0  0  0  0  0  0  0  0  0
   19.1571    7.2110   32.8331 H   0  0  0  0  0  0  0  0  0  0  0  0
   18.0360   10.3866   33.9220 H   0  0  0  0  0  0  0  0  0  0  0  0
   20.7898   10.3351   33.4479 H   0  0  0  0  0  0  0  0  0  0  0  0
   22.3646    6.6809   31.1104 H   0  0  0  0  0  0  0  0  0  0  0  0
   21.4834    3.5228   31.4746 H   0  0  0  0  0  0  0  0  0  0  0  0
   21.2280    3.9394   29.7460 H   0  0  0  0  0  0  0  0  0  0  0  0
   23.6652    3.4075   32.2678 H   0  0  0  0  0  0  0  0  0  0  0  0
   26.0766    3.9071   32.0552 H   0  0  0  0  0  0  0  0  0  0  0  0
   27.7976    4.7127   29.5614 H   0  0  0  0  0  0  0  0  0  0  0  0
   27.4400    6.4630   29.7485 H   0  0  0  0  0  0  0  0  0  0  0  0
   27.7738    5.4546   31.1971 H   0  0  0  0  0  0  0  0  0  0  0  0
   25.2797    6.3141   28.5980 H   0  0  0  0  0  0  0  0  0  0  0  0
   22.8692    5.8147   28.8084 H   0  0  0  0  0  0  0  0  0  0  0  0
  1  2  1  0  0  0  0
  2  3  1  0  0  0  0
  3  4  1  0  0  0  0
  4 10  1  0  0  0  0
  4  5  2  0  0  0  0
  5  6  1  0  0  0  0
  6  7  2  0  0  0  0
  6 13  1  0  0  0  0
  7  8  1  0  0  0  0
  8  9  2  0  0  0  0
  8 10  1  0  0  0  0
 10 11  1  0  0  0  0
 11 12  3  0  0  0  0
 13 14  1  0  0  0  0
 14 15  2  0  0  0  0
 14 16  1  0  0  0  0
 16 17  1  0  0  0  0
 17 23  2  0  0  0  0
 17 18  1  0  0  0  0
 18 19  2  0  0  0  0
 19 20  1  0  0  0  0
 20 21  1  0  0  0  0
 20 22  2  0  0  0  0
 22 23  1  0  0  0  0
  1 24  1  0  0  0  0
  1 25  1  0  0  0  0
  1 26  1  0  0  0  0
  2 27  1  0  0  0  0
  2 28  1  0  0  0  0
  7 29  1  0  0  0  0
  9 30  1  0  0  0  0
 10 31  1  0  0  0  0
 13 32  1  0  0  0  0
 16 33  1  0  0  0  0
 16 34  1  0  0  0  0
 18 35  1  0  0  0  0
 19 36  1  0  0  0  0
 21 37  1  0  0  0  0
 21 38  1  0  0  0  0
 21 39  1  0  0  0  0
 22 40  1  0  0  0  0
 23 41  1  0  0  0  0
M  END
> <i_m_stars>
0

> <r_user_dG.exp>
-9.142359

$$$$
18630-1
  -OEChem-05192314073D
 Structure written by MMmdl.
 41 42  0     0  0  0  0  0  0999 V2000
   24.0212   12.2423   30.2763 C   0  0  0  0  0  0  0  0  0  0  0  0
   23.2929   10.9217   30.5380 C   0  0  0  0  0  0  0  0  0  0  0  0
   22.1435   11.2077   31.3313 O   0  0  0  0  0  0  0  0  0  0  0  0
   21.3312   10.1711   31.7577 C   0  0  0  0  0  0  0  0  0  0  0  0
   21.6809    8.9094   31.3858 N   0  0  0  0  0  0  0  0  0  0  0  0
   20.8904    7.8933   31.7600 C   0  0  0  0  0  0  0  0  0  0  0  0
   19.7538    8.0604   32.5352 C   0  0  0  0  0  0  0  0  0  0  0  0
   19.4031    9.3419   32.9176 C   0  0  0  0  0  0  0  0  0  0  0  0
   18.2457    9.4395   33.6789 N   0  0  0  0  0  0  0  0  0  0  0  0
   20.1936   10.4361   32.5290 C   0  0  0  0  0  0  0  0  0  0  0  0
   19.8748   11.8145   32.8832 C   0  0  0  0  0  0  0  0  0  0  0  0
   19.6299   12.9119   33.1596 N   0  0  0  0  0  0  0  0  0  0  0  0
   21.3867    6.6852   31.3195 N   0  0  0  0  0  0  0  0  0  0  0  0
   20.7626    5.5181   31.1286 C   0  0  0  0  0  0  0  0  0  0  0  0
   19.5491    5.3722   31.2624 O   0  0  0  0  0  0  0  0  0  0  0  0
   21.6082    4.3050   30.7113 C   0  0  0  0  0  0  0  0  0  0  0  0
   23.1035    4.5843   30.5577 C   0  0  0  0  0  0  0  0  0  0  0  0
   24.0149    4.0448   31.4691 C   0  0  0  0  0  0  0  0  0  0  0  0
   25.3756    4.3277   31.3494 C   0  0  0  0  0  0  0  0  0  0  0  0
   25.8350    5.1529   30.3201 C   0  0  0  0  0  0  0  0  0  0  0  0
   27.3129    5.4673   30.1984 C   0  0  0  0  0  0  0  0  0  0  0  0
   24.9278    5.6839   29.4014 C   0  0  0  0  0  0  0  0  0  0  0  0
   23.5681    5.4012   29.5204 C   0  0  0  0  0  0  0  0  0  0  0  0
   24.9156   12.0534   29.6644 H   0  0  0  0  0  0  0  0  0  0  0  0
   23.3504   12.9312   29.7421 H   0  0  0  0  0  0  0  0  0  0  0  0
   24.3209   12.6917   31.2345 H   0  0  0  0  0  0  0  0  0  0  0  0
   22.9858   10.4683   29.5840 H   0  0  0  0  0  0  0  0  0  0  0  0
   23.9562   10.2289   31.0765 H   0  0  0  0  0  0  0  0  0  0  0  0
   18.9079    7.6476   31.9659 H   0  0  0  0  0  0  0  0  0  0  0  0
   19.8979    7.4742   33.4548 H   0  0  0  0  0  0  0  0  0  0  0  0
   18.0360   10.3866   33.9220 H   0  0  0  0  0  0  0  0  0  0  0  0
   22.3646    6.6809   31.1104 H   0  0  0  0  0  0  0  0  0  0  0  0
   21.4834    3.5228   31.4746 H   0  0  0  0  0  0  0  0  0  0  0  0
   21.2280    3.9394   29.7460 H   0  0  0  0  0  0  0  0  0  0  0  0
   23.6652    3.4075   32.2678 H   0  0  0  0  0  0  0  0  0  0  0  0
   26.0766    3.9071   32.0552 H   0  0  0  0  0  0  0  0  0  0  0  0
   27.7976    4.7127   29.5614 H   0  0  0  0  0  0  0  0  0  0  0  0
   27.4400    6.4630   29.7485 H   0  0  0  0  0  0  0  0  0  0  0  0
   27.7738    5.4546   31.1971 H   0  0  0  0  0  0  0  0  0  0  0  0
   25.2797    6.3141   28.5980 H   0  0  0  0  0  0  0  0  0  0  0  0
   22.8692    5.8147   28.8084 H   0  0  0  0  0  0  0  0  0  0  0  0
  1  2  1  0  0  0  0
  2  3  1  0  0  0  0
  3  4  1  0  0  0  0
  4 10  2  0  0  0  0
  4  5  1  0  0  0  0
  5  6  2  0  0  0  0
  6  7  1  0  0  0  0
  6 13  1  0  0  0  0
  7  8  1  0  0  0  0
  8  9  2  0  0  0  0
  8 10  1  0  0  0  0
 10 11  1  0  0  0  0
 11 12  3  0  0  0  0
 13 14  1  0  0  0  0
 14 15  2  0  0  0  0
 14 16  1  0  0  0  0
 16 17  1  0  0  0  0
 17 23  2  0  0  0  0
 17 18  1  0  0  0  0
 18 19  2  0  0  0  0
 19 20  1  0  0  0  0
 20 21  1  0  0  0  0
 20 22  2  0  0  0  0
 22 23  1  0  0  0  0
  1 24  1  0  0  0  0
  1 25  1  0  0  0  0
  1 26  1  0  0  0  0
  2 27  1  0  0  0  0
  2 28  1  0  0  0  0
  7 29  1  0  0  0  0
  7 30  1  0  0  0  0
  9 31  1  0  0  0  0
 13 32  1  0  0  0  0
 16 33  1  0  0  0  0
 16 34  1  0  0  0  0
 18 35  1  0  0  0  0
 19 36  1  0  0  0  0
 21 37  1  0  0  0  0
 21 38  1  0  0  0  0
 21 39  1  0  0  0  0
 22 40  1  0  0  0  0
 23 41  1  0  0  0  0
M  END
> <i_m_stars>
0

> <r_user_dG.exp>
-9.142359

$$$$
18630-1
  -OEChem-05192314073D
 Structure written by MMmdl.
 41 42  0     1  0  0  0  0  0999 V2000
   24.0212   12.2423   30.2763 C   0  0  0  0  0  0  0  0  0  0  0  0
   23.2929   10.9217   30.5380 C   0  0  0  0  0  0  0  0  0  0  0  0
   22.1435   11.2077   31.3313 O   0  0  0  0  0  0  0  0  0  0  0  0
   21.3312   10.1711   31.7577 C   0  0  0  0  0  0  0  0  0  0  0  0
   21.6809    8.9094   31.3858 N   0  0  0  0  0  0  0  0  0  0  0  0
   20.8904    7.8933   31.7600 C   0  0  0  0  0  0  0  0  0  0  0  0
   19.7538    8.0604   32.5352 C   0  0  0  0  0  0  0  0  0  0  0  0
   19.4031    9.3419   32.9176 C   0  0  0  0  0  0  0  0  0  0  0  0
   18.2457    9.4395   33.6789 N   0  0  0  0  0  0  0  0  0  0  0  0
   20.1936   10.4361   32.5290 C   0  0  3  0  0  0  0  0  0  0  0  0
   19.8748   11.8145   32.8832 C   0  0  0  0  0  0  0  0  0  0  0  0
   19.6299   12.9119   33.1596 N   0  0  0  0  0  0  0  0  0  0  0  0
   21.3867    6.6852   31.3195 N   0  0  0  0  0  0  0  0  0  0  0  0
   20.7626    5.5181   31.1286 C   0  0  0  0  0  0  0  0  0  0  0  0
   19.5491    5.3722   31.2624 O   0  0  0  0  0  0  0  0  0  0  0  0
   21.6082    4.3050   30.7113 C   0  0  0  0  0  0  0  0  0  0  0  0
   23.1035    4.5843   30.5577 C   0  0  0  0  0  0  0  0  0  0  0  0
   24.0149    4.0448   31.4691 C   0  0  0  0  0  0  0  0  0  0  0  0
   25.3756    4.3277   31.3494 C   0  0  0  0  0  0  0  0  0  0  0  0
   25.8350    5.1529   30.3201 C   0  0  0  0  0  0  0  0  0  0  0  0
   27.3129    5.4673   30.1984 C   0  0  0  0  0  0  0  0  0  0  0  0
   24.9278    5.6839   29.4014 C   0  0  0  0  0  0  0  0  0  0  0  0
   23.5681    5.4012   29.5204 C   0  0  0  0  0  0  0  0  0  0  0  0
   24.9156   12.0534   29.6644 H   0  0  0  0  0  0  0  0  0  0  0  0
   23.3504   12.9312   29.7421 H   0  0  0  0  0  0  0  0  0  0  0  0
   24.3209   12.6917   31.2345 H   0  0  0  0  0  0  0  0  0  0  0  0
   22.9858   10.4683   29.5840 H   0  0  0  0  0  0  0  0  0  0  0  0
   23.9562   10.2289   31.0765 H   0  0  0  0  0  0  0  0  0  0  0  0
   19.1571    7.2110   32.8331 H   0  0  0  0  0  0  0  0  0  0  0  0
   18.0751   10.3984   33.9056 H   0  0  0  0  0  0  0  0  0  0  0  0
   17.4727    9.0777   33.1579 H   0  0  0  0  0  0  0  0  0  0  0  0
   20.7898   10.3351   33.4479 H   0  0  0  0  0  0  0  0  0  0  0  0
   21.4834    3.5228   31.4746 H   0  0  0  0  0  0  0  0  0  0  0  0
   21.2280    3.9394   29.7460 H   0  0  0  0  0  0  0  0  0  0  0  0
   23.6652    3.4075   32.2678 H   0  0  0  0  0  0  0  0  0  0  0  0
   26.0766    3.9071   32.0552 H   0  0  0  0  0  0  0  0  0  0  0  0
   27.7976    4.7127   29.5614 H   0  0  0  0  0  0  0  0  0  0  0  0
   27.4400    6.4630   29.7485 H   0  0  0  0  0  0  0  0  0  0  0  0
   27.7738    5.4546   31.1971 H   0  0  0  0  0  0  0  0  0  0  0  0
   25.2797    6.3141   28.5980 H   0  0  0  0  0  0  0  0  0  0  0  0
   22.8692    5.8147   28.8084 H   0  0  0  0  0  0  0  0  0  0  0  0
  1  2  1  0  0  0  0
  2  3  1  0  0  0  0
  3  4  1  0  0  0  0
  4 10  1  0  0  0  0
  4  5  2  0  0  0  0
  5  6  1  0  0  0  0
  6  7  1  0  0  0  0
  6 13  2  0  0  0  0
  7  8  2  0  0  0  0
  8  9  1  0  0  0  0
  8 10  1  0  0  0  0
 10 11  1  0  0  0  0
 11 12  3  0  0  0  0
 13 14  1  0  0  0  0
 14 15  2  0  0  0  0
 14 16  1  0  0  0  0
 16 17  1  0  0  0  0
 17 23  2  0  0  0  0
 17 18  1  0  0  0  0
 18 19  2  0  0  0  0
 19 20  1  0  0  0  0
 20 21  1  0  0  0  0
 20 22  2  0  0  0  0
 22 23  1  0  0  0  0
  1 24  1  0  0  0  0
  1 25  1  0  0  0  0
  1 26  1  0  0  0  0
  2 27  1  0  0  0  0
  2 28  1  0  0  0  0
  7 29  1  0  0  0  0
  9 30  1  0  0  0  0
  9 31  1  0  0  0  0
 10 32  1  0  0  0  0
 16 33  1  0  0  0  0
 16 34  1  0  0  0  0
 18 35  1  0  0  0  0
 19 36  1  0  0  0  0
 21 37  1  0  0  0  0
 21 38  1  0  0  0  0
 21 39  1  0  0  0  0
 22 40  1  0  0  0  0
 23 41  1  0  0  0  0
M  END
> <i_m_stars>
0

> <r_user_dG.exp>
-9.142359

$$$$
18630-1
  -OEChem-05192314073D
 Structure written by MMmdl.
 41 42  0     0  0  0  0  0  0999 V2000
   24.0212   12.2423   30.2763 C   0  0  0  0  0  0  0  0  0  0  0  0
   23.2929   10.9217   30.5380 C   0  0  0  0  0  0  0  0  0  0  0  0
   22.1435   11.2077   31.3313 O   0  0  0  0  0  0  0  0  0  0  0  0
   21.3312   10.1711   31.7577 C   0  0  0  0  0  0  0  0  0  0  0  0
   21.6809    8.9094   31.3858 N   0  0  0  0  0  0  0  0  0  0  0  0
   20.8904    7.8933   31.7600 C   0  0  0  0  0  0  0  0  0  0  0  0
   19.7538    8.0604   32.5352 C   0  0  0  0  0  0  0  0  0  0  0  0
   19.4031    9.3419   32.9176 C   0  0  0  0  0  0  0  0  0  0  0  0
   18.2457    9.4395   33.6789 N   0  0  0  0  0  0  0  0  0  0  0  0
   20.1936   10.4361   32.5290 C   0  0  0  0  0  0  0  0  0  0  0  0
   19.8748   11.8145   32.8832 C   0  0  0  0  0  0  0  0  0  0  0  0
   19.6299   12.9119   33.1596 N   0  0  0  0  0  0  0  0  0  0  0  0
   21.3867    6.6852   31.3195 N   0  0  0  0  0  0  0  0  0  0  0  0
   20.7626    5.5181   31.1286 C   0  0  0  0  0  0  0  0  0  0  0  0
   19.5491    5.3722   31.2624 O   0  0  0  0  0  0  0  0  0  0  0  0
   21.6082    4.3050   30.7113 C   0  0  0  0  0  0  0  0  0  0  0  0
   23.1035    4.5843   30.5577 C   0  0  0  0  0  0  0  0  0  0  0  0
   24.0149    4.0448   31.4691 C   0  0  0  0  0  0  0  0  0  0  0  0
   25.3756    4.3277   31.3494 C   0  0  0  0  0  0  0  0  0  0  0  0
   25.8350    5.1529   30.3201 C   0  0  0  0  0  0  0  0  0  0  0  0
   27.3129    5.4673   30.1984 C   0  0  0  0  0  0  0  0  0  0  0  0
   24.9278    5.6839   29.4014 C   0  0  0  0  0  0  0  0  0  0  0  0
   23.5681    5.4012   29.5204 C   0  0  0  0  0  0  0  0  0  0  0  0
   24.9156   12.0534   29.6644 H   0  0  0  0  0  0  0  0  0  0  0  0
   23.3504   12.9312   29.7421 H   0  0  0  0  0  0  0  0  0  0  0  0
   24.3209   12.6917   31.2345 H   0  0  0  0  0  0  0  0  0  0  0  0
   22.9858   10.4683   29.5840 H   0  0  0  0  0  0  0  0  0  0  0  0
   23.9562   10.2289   31.0765 H   0  0  0  0  0  0  0  0  0  0  0  0
   18.9079    7.6476   31.9659 H   0  0  0  0  0  0  0  0  0  0  0  0
   19.8979    7.4742   33.4548 H   0  0  0  0  0  0  0  0  0  0  0  0
   18.0751   10.3984   33.9056 H   0  0  0  0  0  0  0  0  0  0  0  0
   17.4727    9.0777   33.1579 H   0  0  0  0  0  0  0  0  0  0  0  0
   21.4834    3.5228   31.4746 H   0  0  0  0  0  0  0  0  0  0  0  0
   21.2280    3.9394   29.7460 H   0  0  0  0  0  0  0  0  0  0  0  0
   23.6652    3.4075   32.2678 H   0  0  0  0  0  0  0  0  0  0  0  0
   26.0766    3.9071   32.0552 H   0  0  0  0  0  0  0  0  0  0  0  0
   27.7976    4.7127   29.5614 H   0  0  0  0  0  0  0  0  0  0  0  0
   27.4400    6.4630   29.7485 H   0  0  0  0  0  0  0  0  0  0  0  0
   27.7738    5.4546   31.1971 H   0  0  0  0  0  0  0  0  0  0  0  0
   25.2797    6.3141   28.5980 H   0  0  0  0  0  0  0  0  0  0  0  0
   22.8692    5.8147   28.8084 H   0  0  0  0  0  0  0  0  0  0  0  0
  1  2  1  0  0  0  0
  2  3  1  0  0  0  0
  3  4  1  0  0  0  0
  4 10  1  0  0  0  0
  4  5  2  0  0  0  0
  5  6  1  0  0  0  0
  6  7  1  0  0  0  0
  6 13  2  0  0  0  0
  7  8  1  0  0  0  0
  8  9  1  0  0  0  0
  8 10  2  0  0  0  0
 10 11  1  0  0  0  0
 11 12  3  0  0  0  0
 13 14  1  0  0  0  0
 14 15  2  0  0  0  0
 14 16  1  0  0  0  0
 16 17  1  0  0  0  0
 17 23  2  0  0  0  0
 17 18  1  0  0  0  0
 18 19  2  0  0  0  0
 19 20  1  0  0  0  0
 20 21  1  0  0  0  0
 20 22  2  0  0  0  0
 22 23  1  0  0  0  0
  1 24  1  0  0  0  0
  1 25  1  0  0  0  0
  1 26  1  0  0  0  0
  2 27  1  0  0  0  0
  2 28  1  0  0  0  0
  7 29  1  0  0  0  0
  7 30  1  0  0  0  0
  9 31  1  0  0  0  0
  9 32  1  0  0  0  0
 16 33  1  0  0  0  0
 16 34  1  0  0  0  0
 18 35  1  0  0  0  0
 19 36  1  0  0  0  0
 21 37  1  0  0  0  0
 21 38  1  0  0  0  0
 21 39  1  0  0  0  0
 22 40  1  0  0  0  0
 23 41  1  0  0  0  0
M  END
> <i_m_stars>
0

> <r_user_dG.exp>
-9.142359

$$$$
18630-1
  -OEChem-05192314073D
 Structure written by MMmdl.
 41 42  0     0  0  0  0  0  0999 V2000
   24.0212   12.2423   30.2763 C   0  0  0  0  0  0  0  0  0  0  0  0
   23.2929   10.9217   30.5380 C   0  0  0  0  0  0  0  0  0  0  0  0
   22.1435   11.2077   31.3313 O   0  0  0  0  0  0  0  0  0  0  0  0
   21.3312   10.1711   31.7577 C   0  0  0  0  0  0  0  0  0  0  0  0
   21.6809    8.9094   31.3858 N   0  0  0  0  0  0  0  0  0  0  0  0
   20.8904    7.8933   31.7600 C   0  0  0  0  0  0  0  0  0  0  0  0
   19.7538    8.0604   32.5352 C   0  0  0  0  0  0  0  0  0  0  0  0
   19.4031    9.3419   32.9176 C   0  0  0  0  0  0  0  0  0  0  0  0
   18.2457    9.4395   33.6789 N   0  0  0  0  0  0  0  0  0  0  0  0
   20.1936   10.4361   32.5290 C   0  0  0  0  0  0  0  0  0  0  0  0
   19.8748   11.8145   32.8832 C   0  0  0  0  0  0  0  0  0  0  0  0
   19.6299   12.9119   33.1596 N   0  0  0  0  0  0  0  0  0  0  0  0
   21.3867    6.6852   31.3195 N   0  0  0  0  0  0  0  0  0  0  0  0
   20.7626    5.5181   31.1286 C   0  0  0  0  0  0  0  0  0  0  0  0
   19.5491    5.3722   31.2624 O   0  0  0  0  0  0  0  0  0  0  0  0
   21.6082    4.3050   30.7113 C   0  0  0  0  0  0  0  0  0  0  0  0
   23.1035    4.5843   30.5577 C   0  0  0  0  0  0  0  0  0  0  0  0
   24.0149    4.0448   31.4691 C   0  0  0  0  0  0  0  0  0  0  0  0
   25.3756    4.3277   31.3494 C   0  0  0  0  0  0  0  0  0  0  0  0
   25.8350    5.1529   30.3201 C   0  0  0  0  0  0  0  0  0  0  0  0
   27.3129    5.4673   30.1984 C   0  0  0  0  0  0  0  0  0  0  0  0
   24.9278    5.6839   29.4014 C   0  0  0  0  0  0  0  0  0  0  0  0
   23.5681    5.4012   29.5204 C   0  0  0  0  0  0  0  0  0  0  0  0
   24.9156   12.0534   29.6644 H   0  0  0  0  0  0  0  0  0  0  0  0
   23.3504   12.9312   29.7421 H   0  0  0  0  0  0  0  0  0  0  0  0
   24.3209   12.6917   31.2345 H   0  0  0  0  0  0  0  0  0  0  0  0
   22.9858   10.4683   29.5840 H   0  0  0  0  0  0  0  0  0  0  0  0
   23.9562   10.2289   31.0765 H   0  0  0  0  0  0  0  0  0  0  0  0
   22.5069    8.7444   30.8468 H   0  0  0  0  0  0  0  0  0  0  0  0
   18.9079    7.6476   31.9659 H   0  0  0  0  0  0  0  0  0  0  0  0
   19.8979    7.4742   33.4548 H   0  0  0  0  0  0  0  0  0  0  0  0
   18.0360   10.3866   33.9220 H   0  0  0  0  0  0  0  0  0  0  0  0
   21.4834    3.5228   31.4746 H   0  0  0  0  0  0  0  0  0  0  0  0
   21.2280    3.9394   29.7460 H   0  0  0  0  0  0  0  0  0  0  0  0
   23.6652    3.4075   32.2678 H   0  0  0  0  0  0  0  0  0  0  0  0
   26.0766    3.9071   32.0552 H   0  0  0  0  0  0  0  0  0  0  0  0
   27.7976    4.7127   29.5614 H   0  0  0  0  0  0  0  0  0  0  0  0
   27.4400    6.4630   29.7485 H   0  0  0  0  0  0  0  0  0  0  0  0
   27.7738    5.4546   31.1971 H   0  0  0  0  0  0  0  0  0  0  0  0
   25.2797    6.3141   28.5980 H   0  0  0  0  0  0  0  0  0  0  0  0
   22.8692    5.8147   28.8084 H   0  0  0  0  0  0  0  0  0  0  0  0
  1  2  1  0  0  0  0
  2  3  1  0  0  0  0
  3  4  1  0  0  0  0
  4 10  2  0  0  0  0
  4  5  1  0  0  0  0
  5  6  1  0  0  0  0
  6  7  1  0  0  0  0
  6 13  2  0  0  0  0
  7  8  1  0  0  0  0
  8  9  2  0  0  0  0
  8 10  1  0  0  0  0
 10 11  1  0  0  0  0
 11 12  3  0  0  0  0
 13 14  1  0  0  0  0
 14 15  2  0  0  0  0
 14 16  1  0  0  0  0
 16 17  1  0  0  0  0
 17 23  2  0  0  0  0
 17 18  1  0  0  0  0
 18 19  2  0  0  0  0
 19 20  1  0  0  0  0
 20 21  1  0  0  0  0
 20 22  2  0  0  0  0
 22 23  1  0  0  0  0
  1 24  1  0  0  0  0
  1 25  1  0  0  0  0
  1 26  1  0  0  0  0
  2 27  1  0  0  0  0
  2 28  1  0  0  0  0
  5 29  1  0  0  0  0
  7 30  1  0  0  0  0
  7 31  1  0  0  0  0
  9 32  1  0  0  0  0
 16 33  1  0  0  0  0
 16 34  1  0  0  0  0
 18 35  1  0  0  0  0
 19 36  1  0  0  0  0
 21 37  1  0  0  0  0
 21 38  1  0  0  0  0
 21 39  1  0  0  0  0
 22 40  1  0  0  0  0
 23 41  1  0  0  0  0
M  END
> <i_m_stars>
0

> <r_user_dG.exp>
-9.142359

$$$$
18630-1
  -OEChem-05192314073D
 Structure written by MMmdl.
 41 42  0     1  0  0  0  0  0999 V2000
   24.0212   12.2423   30.2763 C   0  0  0  0  0  0  0  0  0  0  0  0
   23.2929   10.9217   30.5380 C   0  0  0  0  0  0  0  0  0  0  0  0
   22.1435   11.2077   31.3313 O   0  0  0  0  0  0  0  0  0  0  0  0
   21.3312   10.1711   31.7577 C   0  0  0  0  0  0  0  0  0  0  0  0
   21.6809    8.9094   31.3858 N   0  0  0  0  0  0  0  0  0  0  0  0
   20.8904    7.8933   31.7600 C   0  0  0  0  0  0  0  0  0  0  0  0
   19.7538    8.0604   32.5352 C   0  0  0  0  0  0  0  0  0  0  0  0
   19.4031    9.3419   32.9176 C   0  0  0  0  0  0  0  0  0  0  0  0
   18.2457    9.4395   33.6789 N   0  0  0  0  0  0  0  0  0  0  0  0
   20.1936   10.4361   32.5290 C   0  0  3  0  0  0  0  0  0  0  0  0
   19.8748   11.8145   32.8832 C   0  0  0  0  0  0  0  0  0  0  0  0
   19.6299   12.9119   33.1596 N   0  0  0  0  0  0  0  0  0  0  0  0
   21.3867    6.6852   31.3195 N   0  0  0  0  0  0  0  0  0  0  0  0
   20.7626    5.5181   31.1286 C   0  0  0  0  0  0  0  0  0  0  0  0
   19.5491    5.3722   31.2624 O   0  0  0  0  0  0  0  0  0  0  0  0
   21.6082    4.3050   30.7113 C   0  0  0  0  0  0  0  0  0  0  0  0
   23.1035    4.5843   30.5577 C   0  0  0  0  0  0  0  0  0  0  0  0
   24.0149    4.0448   31.4691 C   0  0  0  0  0  0  0  0  0  0  0  0
   25.3756    4.3277   31.3494 C   0  0  0  0  0  0  0  0  0  0  0  0
   25.8350    5.1529   30.3201 C   0  0  0  0  0  0  0  0  0  0  0  0
   27.3129    5.4673   30.1984 C   0  0  0  0  0  0  0  0  0  0  0  0
   24.9278    5.6839   29.4014 C   0  0  0  0  0  0  0  0  0  0  0  0
   23.5681    5.4012   29.5204 C   0  0  0  0  0  0  0  0  0  0  0  0
   24.9156   12.0534   29.6644 H   0  0  0  0  0  0  0  0  0  0  0  0
   23.3504   12.9312   29.7421 H   0  0  0  0  0  0  0  0  0  0  0  0
   24.3209   12.6917   31.2345 H   0  0  0  0  0  0  0  0  0  0  0  0
   22.9858   10.4683   29.5840 H   0  0  0  0  0  0  0  0  0  0  0  0
   23.9562   10.2289   31.0765 H   0  0  0  0  0  0  0  0  0  0  0  0
   19.1571    7.2110   32.8331 H   0  0  0  0  0  0  0  0  0  0  0  0
   18.0360   10.3866   33.9220 H   0  0  0  0  0  0  0  0  0  0  0  0
   20.7898   10.3351   33.4479 H   0  0  0  0  0  0  0  0  0  0  0  0
   19.3162    4.4694   31.0800 H   0  0  0  0  0  0  0  0  0  0  0  0
   21.4834    3.5228   31.4746 H   0  0  0  0  0  0  0  0  0  0  0  0
   21.2280    3.9394   29.7460 H   0  0  0  0  0  0  0  0  0  0  0  0
   23.6652    3.4075   32.2678 H   0  0  0  0  0  0  0  0  0  0  0  0
   26.0766    3.9071   32.0552 H   0  0  0  0  0  0  0  0  0  0  0  0
   27.7976    4.7127   29.5614 H   0  0  0  0  0  0  0  0  0  0  0  0
   27.4400    6.4630   29.7485 H   0  0  0  0  0  0  0  0  0  0  0  0
   27.7738    5.4546   31.1971 H   0  0  0  0  0  0  0  0  0  0  0  0
   25.2797    6.3141   28.5980 H   0  0  0  0  0  0  0  0  0  0  0  0
   22.8692    5.8147   28.8084 H   0  0  0  0  0  0  0  0  0  0  0  0
  1  2  1  0  0  0  0
  2  3  1  0  0  0  0
  3  4  1  0  0  0  0
  4 10  1  0  0  0  0
  4  5  2  0  0  0  0
  5  6  1  0  0  0  0
  6  7  2  0  0  0  0
  6 13  1  0  0  0  0
  7  8  1  0  0  0  0
  8  9  2  0  0  0  0
  8 10  1  0  0  0  0
 10 11  1  0  0  0  0
 11 12  3  0  0  0  0
 13 14  2  0  0  0  0
 14 15  1  0  0  0  0
 14 16  1  0  0  0  0
 16 17  1  0  0  0  0
 17 23  2  0  0  0  0
 17 18  1  0  0  0  0
 18 19  2  0  0  0  0
 19 20  1  0  0  0  0
 20 21  1  0  0  0  0
 20 22  2  0  0  0  0
 22 23  1  0  0  0  0
  1 24  1  0  0  0  0
  1 25  1  0  0  0  0
  1 26  1  0  0  0  0
  2 27  1  0  0  0  0
  2 28  1  0  0  0  0
  7 29  1  0  0  0  0
  9 30  1  0  0  0  0
 10 31  1  0  0  0  0
 15 32  1  0  0  0  0
 16 33  1  0  0  0  0
 16 34  1  0  0  0  0
 18 35  1  0  0  0  0
 19 36  1  0  0  0  0
 21 37  1  0  0  0  0
 21 38  1  0  0  0  0
 21 39  1  0  0  0  0
 22 40  1  0  0  0  0
 23 41  1  0  0  0  0
M  END
> <i_m_stars>
0

> <r_user_dG.exp>
-9.142359

$$$$
18630-1
  -OEChem-05192314073D
 Structure written by MMmdl.
 41 42  0     0  0  0  0  0  0999 V2000
   24.0212   12.2423   30.2763 C   0  0  0  0  0  0  0  0  0  0  0  0
   23.2929   10.9217   30.5380 C   0  0  0  0  0  0  0  0  0  0  0  0
   22.1435   11.2077   31.3313 O   0  0  0  0  0  0  0  0  0  0  0  0
   21.3312   10.1711   31.7577 C   0  0  0  0  0  0  0  0  0  0  0  0
   21.6809    8.9094   31.3858 N   0  0  0  0  0  0  0  0  0  0  0  0
   20.8904    7.8933   31.7600 C   0  0  0  0  0  0  0  0  0  0  0  0
   19.7538    8.0604   32.5352 C   0  0  0  0  0  0  0  0  0  0  0  0
   19.4031    9.3419   32.9176 C   0  0  0  0  0  0  0  0  0  0  0  0
   18.2457    9.4395   33.6789 N   0  0  0  0  0  0  0  0  0  0  0  0
   20.1936   10.4361   32.5290 C   0  0  0  0  0  0  0  0  0  0  0  0
   19.8748   11.8145   32.8832 C   0  0  0  0  0  0  0  0  0  0  0  0
   19.6299   12.9119   33.1596 N   0  0  0  0  0  0  0  0  0  0  0  0
   21.3867    6.6852   31.3195 N   0  0  0  0  0  0  0  0  0  0  0  0
   20.7626    5.5181   31.1286 C   0  0  0  0  0  0  0  0  0  0  0  0
   19.5491    5.3722   31.2624 O   0  0  0  0  0  0  0  0  0  0  0  0
   21.6082    4.3050   30.7113 C   0  0  0  0  0  0  0  0  0  0  0  0
   23.1035    4.5843   30.5577 C   0  0  0  0  0  0  0  0  0  0  0  0
   24.0149    4.0448   31.4691 C   0  0  0  0  0  0  0  0  0  0  0  0
   25.3756    4.3277   31.3494 C   0  0  0  0  0  0  0  0  0  0  0  0
   25.8350    5.1529   30.3201 C   0  0  0  0  0  0  0  0  0  0  0  0
   27.3129    5.4673   30.1984 C   0  0  0  0  0  0  0  0  0  0  0  0
   24.9278    5.6839   29.4014 C   0  0  0  0  0  0  0  0  0  0  0  0
   23.5681    5.4012   29.5204 C   0  0  0  0  0  0  0  0  0  0  0  0
   24.9156   12.0534   29.6644 H   0  0  0  0  0  0  0  0  0  0  0  0
   23.3504   12.9312   29.7421 H   0  0  0  0  0  0  0  0  0  0  0  0
   24.3209   12.6917   31.2345 H   0  0  0  0  0  0  0  0  0  0  0  0
   22.9858   10.4683   29.5840 H   0  0  0  0  0  0  0  0  0  0  0  0
   23.9562   10.2289   31.0765 H   0  0  0  0  0  0  0  0  0  0  0  0
   18.9079    7.6476   31.9659 H   0  0  0  0  0  0  0  0  0  0  0  0
   19.8979    7.4742   33.4548 H   0  0  0  0  0  0  0  0  0  0  0  0
   18.0360   10.3866   33.9220 H   0  0  0  0  0  0  0  0  0  0  0  0
   19.3162    4.4694   31.0800 H   0  0  0  0  0  0  0  0  0  0  0  0
   21.4834    3.5228   31.4746 H   0  0  0  0  0  0  0  0  0  0  0  0
   21.2280    3.9394   29.7460 H   0  0  0  0  0  0  0  0  0  0  0  0
   23.6652    3.4075   32.2678 H   0  0  0  0  0  0  0  0  0  0  0  0
   26.0766    3.9071   32.0552 H   0  0  0  0  0  0  0  0  0  0  0  0
   27.7976    4.7127   29.5614 H   0  0  0  0  0  0  0  0  0  0  0  0
   27.4400    6.4630   29.7485 H   0  0  0  0  0  0  0  0  0  0  0  0
   27.7738    5.4546   31.1971 H   0  0  0  0  0  0  0  0  0  0  0  0
   25.2797    6.3141   28.5980 H   0  0  0  0  0  0  0  0  0  0  0  0
   22.8692    5.8147   28.8084 H   0  0  0  0  0  0  0  0  0  0  0  0
  1  2  1  0  0  0  0
  2  3  1  0  0  0  0
  3  4  1  0  0  0  0
  4 10  2  0  0  0  0
  4  5  1  0  0  0  0
  5  6  2  0  0  0  0
  6  7  1  0  0  0  0
  6 13  1  0  0  0  0
  7  8  1  0  0  0  0
  8  9  2  0  0  0  0
  8 10  1  0  0  0  0
 10 11  1  0  0  0  0
 11 12  3  0  0  0  0
 13 14  2  0  0  0  0
 14 15  1  0  0  0  0
 14 16  1  0  0  0  0
 16 17  1  0  0  0  0
 17 23  2  0  0  0  0
 17 18  1  0  0  0  0
 18 19  2  0  0  0  0
 19 20  1  0  0  0  0
 20 21  1  0  0  0  0
 20 22  2  0  0  0  0
 22 23  1  0  0  0  0
  1 24  1  0  0  0  0
  1 25  1  0  0  0  0
  1 26  1  0  0  0  0
  2 27  1  0  0  0  0
  2 28  1  0  0  0  0
  7 29  1  0  0  0  0
  7 30  1  0  0  0  0
  9 31  1  0  0  0  0
 15 32  1  0  0  0  0
 16 33  1  0  0  0  0
 16 34  1  0  0  0  0
 18 35  1  0  0  0  0
 19 36  1  0  0  0  0
 21 37  1  0  0  0  0
 21 38  1  0  0  0  0
 21 39  1  0  0  0  0
 22 40  1  0  0  0  0
 23 41  1  0  0  0  0
M  END
> <i_m_stars>
0

> <r_user_dG.exp>
-9.142359

$$$$
