65
  -OEChem-05162309453D
 Structure written by MMmdl.
 44 46  0     0  0  0  0  0  0999 V2000
    3.9461  -49.6120    7.0490 O   0  0  0  0  0  0  0  0  0  0  0  0
    3.1658  -48.7770    6.5329 C   0  0  0  0  0  0  0  0  0  0  0  0
    3.5657  -47.6377    6.1960 O   0  0  0  0  0  0  0  0  0  0  0  0
    1.7275  -49.1194    6.3295 C   0  0  0  0  0  0  0  0  0  0  0  0
    1.2733  -50.7336    6.7953 S   0  0  0  0  0  0  0  0  0  0  0  0
   -0.4025  -50.4753    6.3317 C   0  0  0  0  0  0  0  0  0  0  0  0
   -1.4791  -51.3860    6.4178 C   0  0  0  0  0  0  0  0  0  0  0  0
   -2.7670  -51.0046    6.0094 C   0  0  0  0  0  0  0  0  0  0  0  0
   -2.9812  -49.7061    5.5114 C   0  0  0  0  0  0  0  0  0  0  0  0
   -1.8984  -48.8064    5.4280 C   0  0  0  0  0  0  0  0  0  0  0  0
   -0.5804  -49.1464    5.8290 C   0  0  0  0  0  0  0  0  0  0  0  0
    0.6605  -48.3675    5.8411 C   0  0  0  0  0  0  0  0  0  0  0  0
    0.7551  -46.9299    5.3888 C   0  0  0  0  0  0  0  0  0  0  0  0
    0.8986  -45.9247    6.5503 C   0  0  0  0  0  0  0  0  0  0  0  0
   -0.2812  -45.9301    7.5188 C   0  0  0  0  0  0  0  0  0  0  0  0
   -1.3961  -45.3197    6.8689 O   0  0  0  0  0  0  0  0  0  0  0  0
   -2.6319  -45.4537    7.4519 C   0  0  0  0  0  0  0  0  0  0  0  0
   -2.8737  -46.1426    8.6635 C   0  0  0  0  0  0  0  0  0  0  0  0
   -4.1934  -46.3025    9.1484 C   0  0  0  0  0  0  0  0  0  0  0  0
   -4.4214  -47.0948   10.4168 C   0  0  0  0  0  0  0  0  0  0  0  0
   -5.2826  -45.7389    8.4364 C   0  0  0  0  0  0  0  0  0  0  0  0
   -6.9050  -45.9428    9.0118 Cl  0  0  0  0  0  0  0  0  0  0  0  0
   -5.0340  -45.0050    7.2491 C   0  0  0  0  0  0  0  0  0  0  0  0
   -6.1758  -44.3662    6.4856 C   0  0  0  0  0  0  0  0  0  0  0  0
   -3.7162  -44.8717    6.7646 C   0  0  0  0  0  0  0  0  0  0  0  0
   -1.2372  -52.9829    7.0303 Cl  0  0  0  0  0  0  0  0  0  0  0  0
    4.4907  -47.5543    6.3960 H   0  0  0  0  0  0  0  0  0  0  0  0
   -3.5879  -51.7032    6.0770 H   0  0  0  0  0  0  0  0  0  0  0  0
   -3.9677  -49.4007    5.1953 H   0  0  0  0  0  0  0  0  0  0  0  0
   -2.0804  -47.8144    5.0417 H   0  0  0  0  0  0  0  0  0  0  0  0
    1.6314  -46.8292    4.7316 H   0  0  0  0  0  0  0  0  0  0  0  0
   -0.1564  -46.6821    4.8251 H   0  0  0  0  0  0  0  0  0  0  0  0
    1.8105  -46.1729    7.1131 H   0  0  0  0  0  0  0  0  0  0  0  0
    0.9937  -44.9147    6.1251 H   0  0  0  0  0  0  0  0  0  0  0  0
   -0.5319  -46.9651    7.7942 H   0  0  0  0  0  0  0  0  0  0  0  0
   -0.0218  -45.3623    8.4245 H   0  0  0  0  0  0  0  0  0  0  0  0
   -2.0444  -46.5498    9.2229 H   0  0  0  0  0  0  0  0  0  0  0  0
   -4.3837  -46.4188   11.2838 H   0  0  0  0  0  0  0  0  0  0  0  0
   -5.4074  -47.5805   10.3733 H   0  0  0  0  0  0  0  0  0  0  0  0
   -3.6389  -47.8616   10.5156 H   0  0  0  0  0  0  0  0  0  0  0  0
   -6.3391  -43.3437    6.8568 H   0  0  0  0  0  0  0  0  0  0  0  0
   -5.9268  -44.3320    5.4147 H   0  0  0  0  0  0  0  0  0  0  0  0
   -7.0908  -44.9593    6.6305 H   0  0  0  0  0  0  0  0  0  0  0  0
   -3.5356  -44.3169    5.8558 H   0  0  0  0  0  0  0  0  0  0  0  0
  1  2  2  0  0  0  0
  2  3  1  0  0  0  0
  2  4  1  0  0  0  0
  4  5  1  0  0  0  0
  4 12  2  0  0  0  0
  5  6  1  0  0  0  0
  6  7  2  0  0  0  0
  6 11  1  0  0  0  0
  7  8  1  0  0  0  0
  7 26  1  0  0  0  0
  8  9  2  0  0  0  0
  9 10  1  0  0  0  0
 10 11  2  0  0  0  0
 11 12  1  0  0  0  0
 12 13  1  0  0  0  0
 13 14  1  0  0  0  0
 14 15  1  0  0  0  0
 15 16  1  0  0  0  0
 16 17  1  0  0  0  0
 17 18  2  0  0  0  0
 17 25  1  0  0  0  0
 18 19  1  0  0  0  0
 19 20  1  0  0  0  0
 19 21  2  0  0  0  0
 21 22  1  0  0  0  0
 21 23  1  0  0  0  0
 23 24  1  0  0  0  0
 23 25  2  0  0  0  0
  3 27  1  0  0  0  0
  8 28  1  0  0  0  0
  9 29  1  0  0  0  0
 10 30  1  0  0  0  0
 13 31  1  0  0  0  0
 13 32  1  0  0  0  0
 14 33  1  0  0  0  0
 14 34  1  0  0  0  0
 15 35  1  0  0  0  0
 15 36  1  0  0  0  0
 18 37  1  0  0  0  0
 20 38  1  0  0  0  0
 20 39  1  0  0  0  0
 20 40  1  0  0  0  0
 24 41  1  0  0  0  0
 24 42  1  0  0  0  0
 24 43  1  0  0  0  0
 25 44  1  0  0  0  0
M  END
> <r_user_dG.exp>
-8.40733622276992

$$$$
