30
  -OEChem-05162309453D
 Structure written by MMmdl.
 42 44  0     0  0  0  0  0  0999 V2000
    3.7086  -50.0138    7.0134 O   0  0  0  0  0  0  0  0  0  0  0  0
    3.0488  -49.0009    6.6642 C   0  0  0  0  0  0  0  0  0  0  0  0
    3.5629  -47.8679    6.6025 O   0  0  0  0  0  0  0  0  0  0  0  0
    1.6061  -49.1679    6.3503 C   0  0  0  0  0  0  0  0  0  0  0  0
   -0.3127  -50.3896    6.2492 C   0  0  0  0  0  0  0  0  0  0  0  0
   -1.3056  -51.3826    6.3084 C   0  0  0  0  0  0  0  0  0  0  0  0
   -2.6361  -51.0463    5.9759 C   0  0  0  0  0  0  0  0  0  0  0  0
   -2.9446  -49.7367    5.5736 C   0  0  0  0  0  0  0  0  0  0  0  0
   -1.9388  -48.7516    5.5050 C   0  0  0  0  0  0  0  0  0  0  0  0
   -0.5911  -49.0537    5.8486 C   0  0  0  0  0  0  0  0  0  0  0  0
    0.6353  -48.2926    5.9041 C   0  0  0  0  0  0  0  0  0  0  0  0
    0.8089  -46.8342    5.5612 C   0  0  0  0  0  0  0  0  0  0  0  0
    0.8737  -45.9328    6.8109 C   0  0  0  0  0  0  0  0  0  0  0  0
   -0.4305  -45.9192    7.6156 C   0  0  0  0  0  0  0  0  0  0  0  0
   -1.3927  -45.1905    6.8684 O   0  0  0  0  0  0  0  0  0  0  0  0
   -2.6929  -45.1866    7.3131 C   0  0  0  0  0  0  0  0  0  0  0  0
   -3.1490  -45.8766    8.4660 C   0  0  0  0  0  0  0  0  0  0  0  0
   -4.5087  -45.8424    8.8313 C   0  0  0  0  0  0  0  0  0  0  0  0
   -5.4211  -45.0930    8.0629 C   0  0  0  0  0  0  0  0  0  0  0  0
   -4.9781  -44.3962    6.9226 C   0  0  0  0  0  0  0  0  0  0  0  0
   -3.6217  -44.4510    6.5497 C   0  0  0  0  0  0  0  0  0  0  0  0
    1.0444  -50.4156    6.5272 N   0  0  0  0  0  0  0  0  0  0  0  0
   -4.9806  -46.6345   10.0352 C   0  0  0  0  0  0  0  0  0  0  0  0
    4.4780  -47.9209    6.8521 H   0  0  0  0  0  0  0  0  0  0  0  0
   -1.0541  -52.3903    6.6045 H   0  0  0  0  0  0  0  0  0  0  0  0
   -3.4138  -51.7937    6.0308 H   0  0  0  0  0  0  0  0  0  0  0  0
   -3.9616  -49.4820    5.3144 H   0  0  0  0  0  0  0  0  0  0  0  0
   -2.1948  -47.7518    5.1867 H   0  0  0  0  0  0  0  0  0  0  0  0
    1.7430  -46.7151    4.9925 H   0  0  0  0  0  0  0  0  0  0  0  0
   -0.0414  -46.5149    4.9407 H   0  0  0  0  0  0  0  0  0  0  0  0
    1.6822  -46.2962    7.4622 H   0  0  0  0  0  0  0  0  0  0  0  0
    1.0963  -44.9048    6.4890 H   0  0  0  0  0  0  0  0  0  0  0  0
   -0.7824  -46.9490    7.7757 H   0  0  0  0  0  0  0  0  0  0  0  0
   -0.2652  -45.4328    8.5883 H   0  0  0  0  0  0  0  0  0  0  0  0
   -2.4469  -46.4332    9.0690 H   0  0  0  0  0  0  0  0  0  0  0  0
   -6.4618  -45.0530    8.3489 H   0  0  0  0  0  0  0  0  0  0  0  0
   -5.6778  -43.8205    6.3348 H   0  0  0  0  0  0  0  0  0  0  0  0
   -3.2889  -43.9231    5.6682 H   0  0  0  0  0  0  0  0  0  0  0  0
    1.5488  -51.2290    6.8170 H   0  0  0  0  0  0  0  0  0  0  0  0
   -4.9196  -46.0054   10.9355 H   0  0  0  0  0  0  0  0  0  0  0  0
   -6.0223  -46.9519    9.8797 H   0  0  0  0  0  0  0  0  0  0  0  0
   -4.3424  -47.5212   10.1637 H   0  0  0  0  0  0  0  0  0  0  0  0
  1  2  2  0  0  0  0
  2  3  1  0  0  0  0
  2  4  1  0  0  0  0
  4 11  2  0  0  0  0
  4 22  1  0  0  0  0
  5  6  2  0  0  0  0
  5 10  1  0  0  0  0
  5 22  1  0  0  0  0
  6  7  1  0  0  0  0
  7  8  2  0  0  0  0
  8  9  1  0  0  0  0
  9 10  2  0  0  0  0
 10 11  1  0  0  0  0
 11 12  1  0  0  0  0
 12 13  1  0  0  0  0
 13 14  1  0  0  0  0
 14 15  1  0  0  0  0
 15 16  1  0  0  0  0
 16 17  2  0  0  0  0
 16 21  1  0  0  0  0
 17 18  1  0  0  0  0
 18 19  2  0  0  0  0
 18 23  1  0  0  0  0
 19 20  1  0  0  0  0
 20 21  2  0  0  0  0
  3 24  1  0  0  0  0
  6 25  1  0  0  0  0
  7 26  1  0  0  0  0
  8 27  1  0  0  0  0
  9 28  1  0  0  0  0
 12 29  1  0  0  0  0
 12 30  1  0  0  0  0
 13 31  1  0  0  0  0
 13 32  1  0  0  0  0
 14 33  1  0  0  0  0
 14 34  1  0  0  0  0
 17 35  1  0  0  0  0
 19 36  1  0  0  0  0
 20 37  1  0  0  0  0
 21 38  1  0  0  0  0
 22 39  1  0  0  0  0
 23 40  1  0  0  0  0
 23 41  1  0  0  0  0
 23 42  1  0  0  0  0
M  END
> <r_user_dG.exp>
-7.85321195175529

$$$$
30
  -OEChem-05162309453D
 Structure written by MMmdl.
 42 44  0     1  0  0  0  0  0999 V2000
    3.7086  -50.0138    7.0134 O   0  0  0  0  0  0  0  0  0  0  0  0
    3.0488  -49.0009    6.6642 C   0  0  0  0  0  0  0  0  0  0  0  0
    3.5629  -47.8679    6.6025 O   0  0  0  0  0  0  0  0  0  0  0  0
    1.6061  -49.1679    6.3503 C   0  0  0  0  0  0  0  0  0  0  0  0
   -0.3127  -50.3896    6.2492 C   0  0  0  0  0  0  0  0  0  0  0  0
   -1.3056  -51.3826    6.3084 C   0  0  0  0  0  0  0  0  0  0  0  0
   -2.6361  -51.0463    5.9759 C   0  0  0  0  0  0  0  0  0  0  0  0
   -2.9446  -49.7367    5.5736 C   0  0  0  0  0  0  0  0  0  0  0  0
   -1.9388  -48.7516    5.5050 C   0  0  0  0  0  0  0  0  0  0  0  0
   -0.5911  -49.0537    5.8486 C   0  0  0  0  0  0  0  0  0  0  0  0
    0.6353  -48.2926    5.9041 C   0  0  3  0  0  0  0  0  0  0  0  0
    0.8089  -46.8342    5.5612 C   0  0  0  0  0  0  0  0  0  0  0  0
    0.8737  -45.9328    6.8109 C   0  0  0  0  0  0  0  0  0  0  0  0
   -0.4305  -45.9192    7.6156 C   0  0  0  0  0  0  0  0  0  0  0  0
   -1.3927  -45.1905    6.8684 O   0  0  0  0  0  0  0  0  0  0  0  0
   -2.6929  -45.1866    7.3131 C   0  0  0  0  0  0  0  0  0  0  0  0
   -3.1490  -45.8766    8.4660 C   0  0  0  0  0  0  0  0  0  0  0  0
   -4.5087  -45.8424    8.8313 C   0  0  0  0  0  0  0  0  0  0  0  0
   -5.4211  -45.0930    8.0629 C   0  0  0  0  0  0  0  0  0  0  0  0
   -4.9781  -44.3962    6.9226 C   0  0  0  0  0  0  0  0  0  0  0  0
   -3.6217  -44.4510    6.5497 C   0  0  0  0  0  0  0  0  0  0  0  0
    1.0444  -50.4156    6.5272 N   0  0  0  0  0  0  0  0  0  0  0  0
   -4.9806  -46.6345   10.0352 C   0  0  0  0  0  0  0  0  0  0  0  0
    4.4780  -47.9209    6.8521 H   0  0  0  0  0  0  0  0  0  0  0  0
   -1.0541  -52.3903    6.6045 H   0  0  0  0  0  0  0  0  0  0  0  0
   -3.4138  -51.7937    6.0308 H   0  0  0  0  0  0  0  0  0  0  0  0
   -3.9616  -49.4820    5.3144 H   0  0  0  0  0  0  0  0  0  0  0  0
   -2.1948  -47.7518    5.1867 H   0  0  0  0  0  0  0  0  0  0  0  0
    0.8587  -48.5683    4.8629 H   0  0  0  0  0  0  0  0  0  0  0  0
    1.7430  -46.7151    4.9925 H   0  0  0  0  0  0  0  0  0  0  0  0
   -0.0414  -46.5149    4.9407 H   0  0  0  0  0  0  0  0  0  0  0  0
    1.6822  -46.2962    7.4622 H   0  0  0  0  0  0  0  0  0  0  0  0
    1.0963  -44.9048    6.4890 H   0  0  0  0  0  0  0  0  0  0  0  0
   -0.7824  -46.9490    7.7757 H   0  0  0  0  0  0  0  0  0  0  0  0
   -0.2652  -45.4328    8.5883 H   0  0  0  0  0  0  0  0  0  0  0  0
   -2.4469  -46.4332    9.0690 H   0  0  0  0  0  0  0  0  0  0  0  0
   -6.4618  -45.0530    8.3489 H   0  0  0  0  0  0  0  0  0  0  0  0
   -5.6778  -43.8205    6.3348 H   0  0  0  0  0  0  0  0  0  0  0  0
   -3.2889  -43.9231    5.6682 H   0  0  0  0  0  0  0  0  0  0  0  0
   -4.9196  -46.0054   10.9355 H   0  0  0  0  0  0  0  0  0  0  0  0
   -6.0223  -46.9519    9.8797 H   0  0  0  0  0  0  0  0  0  0  0  0
   -4.3424  -47.5212   10.1637 H   0  0  0  0  0  0  0  0  0  0  0  0
  1  2  2  0  0  0  0
  2  3  1  0  0  0  0
  2  4  1  0  0  0  0
  4 11  1  0  0  0  0
  4 22  2  0  0  0  0
  5  6  2  0  0  0  0
  5 10  1  0  0  0  0
  5 22  1  0  0  0  0
  6  7  1  0  0  0  0
  7  8  2  0  0  0  0
  8  9  1  0  0  0  0
  9 10  2  0  0  0  0
 10 11  1  0  0  0  0
 11 12  1  0  0  0  0
 12 13  1  0  0  0  0
 13 14  1  0  0  0  0
 14 15  1  0  0  0  0
 15 16  1  0  0  0  0
 16 17  2  0  0  0  0
 16 21  1  0  0  0  0
 17 18  1  0  0  0  0
 18 19  2  0  0  0  0
 18 23  1  0  0  0  0
 19 20  1  0  0  0  0
 20 21  2  0  0  0  0
  3 24  1  0  0  0  0
  6 25  1  0  0  0  0
  7 26  1  0  0  0  0
  8 27  1  0  0  0  0
  9 28  1  0  0  0  0
 11 29  1  0  0  0  0
 12 30  1  0  0  0  0
 12 31  1  0  0  0  0
 13 32  1  0  0  0  0
 13 33  1  0  0  0  0
 14 34  1  0  0  0  0
 14 35  1  0  0  0  0
 17 36  1  0  0  0  0
 19 37  1  0  0  0  0
 20 38  1  0  0  0  0
 21 39  1  0  0  0  0
 23 40  1  0  0  0  0
 23 41  1  0  0  0  0
 23 42  1  0  0  0  0
M  END
> <r_user_dG.exp>
-7.85321195175529

$$$$
30
  -OEChem-05162309453D
 Structure written by MMmdl.
 42 44  0     1  0  0  0  0  0999 V2000
    3.7086  -50.0138    7.0134 O   0  0  0  0  0  0  0  0  0  0  0  0
    3.0488  -49.0009    6.6642 C   0  0  0  0  0  0  0  0  0  0  0  0
    3.5629  -47.8679    6.6025 O   0  0  0  0  0  0  0  0  0  0  0  0
    1.6061  -49.1679    6.3503 C   0  0  3  0  0  0  0  0  0  0  0  0
   -0.3127  -50.3896    6.2492 C   0  0  0  0  0  0  0  0  0  0  0  0
   -1.3056  -51.3826    6.3084 C   0  0  0  0  0  0  0  0  0  0  0  0
   -2.6361  -51.0463    5.9759 C   0  0  0  0  0  0  0  0  0  0  0  0
   -2.9446  -49.7367    5.5736 C   0  0  0  0  0  0  0  0  0  0  0  0
   -1.9388  -48.7516    5.5050 C   0  0  0  0  0  0  0  0  0  0  0  0
   -0.5911  -49.0537    5.8486 C   0  0  0  0  0  0  0  0  0  0  0  0
    0.6353  -48.2926    5.9041 C   0  0  0  0  0  0  0  0  0  0  0  0
    0.8089  -46.8342    5.5612 C   0  0  0  0  0  0  0  0  0  0  0  0
    0.8737  -45.9328    6.8109 C   0  0  0  0  0  0  0  0  0  0  0  0
   -0.4305  -45.9192    7.6156 C   0  0  0  0  0  0  0  0  0  0  0  0
   -1.3927  -45.1905    6.8684 O   0  0  0  0  0  0  0  0  0  0  0  0
   -2.6929  -45.1866    7.3131 C   0  0  0  0  0  0  0  0  0  0  0  0
   -3.1490  -45.8766    8.4660 C   0  0  0  0  0  0  0  0  0  0  0  0
   -4.5087  -45.8424    8.8313 C   0  0  0  0  0  0  0  0  0  0  0  0
   -5.4211  -45.0930    8.0629 C   0  0  0  0  0  0  0  0  0  0  0  0
   -4.9781  -44.3962    6.9226 C   0  0  0  0  0  0  0  0  0  0  0  0
   -3.6217  -44.4510    6.5497 C   0  0  0  0  0  0  0  0  0  0  0  0
    1.0444  -50.4156    6.5272 N   0  0  0  0  0  0  0  0  0  0  0  0
   -4.9806  -46.6345   10.0352 C   0  0  0  0  0  0  0  0  0  0  0  0
    4.4780  -47.9209    6.8521 H   0  0  0  0  0  0  0  0  0  0  0  0
    1.8582  -49.4244    5.3108 H   0  0  0  0  0  0  0  0  0  0  0  0
   -1.0541  -52.3903    6.6045 H   0  0  0  0  0  0  0  0  0  0  0  0
   -3.4138  -51.7937    6.0308 H   0  0  0  0  0  0  0  0  0  0  0  0
   -3.9616  -49.4820    5.3144 H   0  0  0  0  0  0  0  0  0  0  0  0
   -2.1948  -47.7518    5.1867 H   0  0  0  0  0  0  0  0  0  0  0  0
    1.7430  -46.7151    4.9925 H   0  0  0  0  0  0  0  0  0  0  0  0
   -0.0414  -46.5149    4.9407 H   0  0  0  0  0  0  0  0  0  0  0  0
    1.6822  -46.2962    7.4622 H   0  0  0  0  0  0  0  0  0  0  0  0
    1.0963  -44.9048    6.4890 H   0  0  0  0  0  0  0  0  0  0  0  0
   -0.7824  -46.9490    7.7757 H   0  0  0  0  0  0  0  0  0  0  0  0
   -0.2652  -45.4328    8.5883 H   0  0  0  0  0  0  0  0  0  0  0  0
   -2.4469  -46.4332    9.0690 H   0  0  0  0  0  0  0  0  0  0  0  0
   -6.4618  -45.0530    8.3489 H   0  0  0  0  0  0  0  0  0  0  0  0
   -5.6778  -43.8205    6.3348 H   0  0  0  0  0  0  0  0  0  0  0  0
   -3.2889  -43.9231    5.6682 H   0  0  0  0  0  0  0  0  0  0  0  0
   -4.9196  -46.0054   10.9355 H   0  0  0  0  0  0  0  0  0  0  0  0
   -6.0223  -46.9519    9.8797 H   0  0  0  0  0  0  0  0  0  0  0  0
   -4.3424  -47.5212   10.1637 H   0  0  0  0  0  0  0  0  0  0  0  0
  1  2  2  0  0  0  0
  2  3  1  0  0  0  0
  2  4  1  0  0  0  0
  4 11  1  0  0  0  0
  4 22  1  0  0  0  0
  5  6  1  0  0  0  0
  5 10  1  0  0  0  0
  5 22  2  0  0  0  0
  6  7  2  0  0  0  0
  7  8  1  0  0  0  0
  8  9  2  0  0  0  0
  9 10  1  0  0  0  0
 10 11  2  0  0  0  0
 11 12  1  0  0  0  0
 12 13  1  0  0  0  0
 13 14  1  0  0  0  0
 14 15  1  0  0  0  0
 15 16  1  0  0  0  0
 16 17  2  0  0  0  0
 16 21  1  0  0  0  0
 17 18  1  0  0  0  0
 18 19  2  0  0  0  0
 18 23  1  0  0  0  0
 19 20  1  0  0  0  0
 20 21  2  0  0  0  0
  3 24  1  0  0  0  0
  4 25  1  0  0  0  0
  6 26  1  0  0  0  0
  7 27  1  0  0  0  0
  8 28  1  0  0  0  0
  9 29  1  0  0  0  0
 12 30  1  0  0  0  0
 12 31  1  0  0  0  0
 13 32  1  0  0  0  0
 13 33  1  0  0  0  0
 14 34  1  0  0  0  0
 14 35  1  0  0  0  0
 17 36  1  0  0  0  0
 19 37  1  0  0  0  0
 20 38  1  0  0  0  0
 21 39  1  0  0  0  0
 23 40  1  0  0  0  0
 23 41  1  0  0  0  0
 23 42  1  0  0  0  0
M  END
> <r_user_dG.exp>
-7.85321195175529

$$$$
30
  -OEChem-05162309453D
 Structure written by MMmdl.
 42 44  0     1  0  0  0  0  0999 V2000
    3.7086  -50.0138    7.0134 O   0  0  0  0  0  0  0  0  0  0  0  0
    3.0488  -49.0009    6.6642 C   0  0  0  0  0  0  0  0  0  0  0  0
    3.5629  -47.8679    6.6025 O   0  0  0  0  0  0  0  0  0  0  0  0
    1.6061  -49.1679    6.3503 C   0  0  0  0  0  0  0  0  0  0  0  0
   -0.3127  -50.3896    6.2492 C   0  0  0  0  0  0  0  0  0  0  0  0
   -1.3056  -51.3826    6.3084 C   0  0  0  0  0  0  0  0  0  0  0  0
   -2.6361  -51.0463    5.9759 C   0  0  0  0  0  0  0  0  0  0  0  0
   -2.9446  -49.7367    5.5736 C   0  0  0  0  0  0  0  0  0  0  0  0
   -1.9388  -48.7516    5.5050 C   0  0  0  0  0  0  0  0  0  0  0  0
   -0.5911  -49.0537    5.8486 C   0  0  3  0  0  0  0  0  0  0  0  0
    0.6353  -48.2926    5.9041 C   0  0  0  0  0  0  0  0  0  0  0  0
    0.8089  -46.8342    5.5612 C   0  0  0  0  0  0  0  0  0  0  0  0
    0.8737  -45.9328    6.8109 C   0  0  0  0  0  0  0  0  0  0  0  0
   -0.4305  -45.9192    7.6156 C   0  0  0  0  0  0  0  0  0  0  0  0
   -1.3927  -45.1905    6.8684 O   0  0  0  0  0  0  0  0  0  0  0  0
   -2.6929  -45.1866    7.3131 C   0  0  0  0  0  0  0  0  0  0  0  0
   -3.1490  -45.8766    8.4660 C   0  0  0  0  0  0  0  0  0  0  0  0
   -4.5087  -45.8424    8.8313 C   0  0  0  0  0  0  0  0  0  0  0  0
   -5.4211  -45.0930    8.0629 C   0  0  0  0  0  0  0  0  0  0  0  0
   -4.9781  -44.3962    6.9226 C   0  0  0  0  0  0  0  0  0  0  0  0
   -3.6217  -44.4510    6.5497 C   0  0  0  0  0  0  0  0  0  0  0  0
    1.0444  -50.4156    6.5272 N   0  0  0  0  0  0  0  0  0  0  0  0
   -4.9806  -46.6345   10.0352 C   0  0  0  0  0  0  0  0  0  0  0  0
    4.4780  -47.9209    6.8521 H   0  0  0  0  0  0  0  0  0  0  0  0
   -1.0541  -52.3903    6.6045 H   0  0  0  0  0  0  0  0  0  0  0  0
   -3.4138  -51.7937    6.0308 H   0  0  0  0  0  0  0  0  0  0  0  0
   -3.9616  -49.4820    5.3144 H   0  0  0  0  0  0  0  0  0  0  0  0
   -2.1948  -47.7518    5.1867 H   0  0  0  0  0  0  0  0  0  0  0  0
   -0.3813  -49.3207    4.8023 H   0  0  0  0  0  0  0  0  0  0  0  0
    1.7430  -46.7151    4.9925 H   0  0  0  0  0  0  0  0  0  0  0  0
   -0.0414  -46.5149    4.9407 H   0  0  0  0  0  0  0  0  0  0  0  0
    1.6822  -46.2962    7.4622 H   0  0  0  0  0  0  0  0  0  0  0  0
    1.0963  -44.9048    6.4890 H   0  0  0  0  0  0  0  0  0  0  0  0
   -0.7824  -46.9490    7.7757 H   0  0  0  0  0  0  0  0  0  0  0  0
   -0.2652  -45.4328    8.5883 H   0  0  0  0  0  0  0  0  0  0  0  0
   -2.4469  -46.4332    9.0690 H   0  0  0  0  0  0  0  0  0  0  0  0
   -6.4618  -45.0530    8.3489 H   0  0  0  0  0  0  0  0  0  0  0  0
   -5.6778  -43.8205    6.3348 H   0  0  0  0  0  0  0  0  0  0  0  0
   -3.2889  -43.9231    5.6682 H   0  0  0  0  0  0  0  0  0  0  0  0
   -4.9196  -46.0054   10.9355 H   0  0  0  0  0  0  0  0  0  0  0  0
   -6.0223  -46.9519    9.8797 H   0  0  0  0  0  0  0  0  0  0  0  0
   -4.3424  -47.5212   10.1637 H   0  0  0  0  0  0  0  0  0  0  0  0
  1  2  2  0  0  0  0
  2  3  1  0  0  0  0
  2  4  1  0  0  0  0
  4 11  2  0  0  0  0
  4 22  1  0  0  0  0
  5  6  1  0  0  0  0
  5 10  1  0  0  0  0
  5 22  2  0  0  0  0
  6  7  2  0  0  0  0
  7  8  1  0  0  0  0
  8  9  2  0  0  0  0
  9 10  1  0  0  0  0
 10 11  1  0  0  0  0
 11 12  1  0  0  0  0
 12 13  1  0  0  0  0
 13 14  1  0  0  0  0
 14 15  1  0  0  0  0
 15 16  1  0  0  0  0
 16 17  2  0  0  0  0
 16 21  1  0  0  0  0
 17 18  1  0  0  0  0
 18 19  2  0  0  0  0
 18 23  1  0  0  0  0
 19 20  1  0  0  0  0
 20 21  2  0  0  0  0
  3 24  1  0  0  0  0
  6 25  1  0  0  0  0
  7 26  1  0  0  0  0
  8 27  1  0  0  0  0
  9 28  1  0  0  0  0
 10 29  1  0  0  0  0
 12 30  1  0  0  0  0
 12 31  1  0  0  0  0
 13 32  1  0  0  0  0
 13 33  1  0  0  0  0
 14 34  1  0  0  0  0
 14 35  1  0  0  0  0
 17 36  1  0  0  0  0
 19 37  1  0  0  0  0
 20 38  1  0  0  0  0
 21 39  1  0  0  0  0
 23 40  1  0  0  0  0
 23 41  1  0  0  0  0
 23 42  1  0  0  0  0
M  END
> <r_user_dG.exp>
-7.85321195175529

$$$$
30
  -OEChem-05162309453D
 Structure written by MMmdl.
 42 44  0     1  0  0  0  0  0999 V2000
    3.7086  -50.0138    7.0134 O   0  0  0  0  0  0  0  0  0  0  0  0
    3.0488  -49.0009    6.6642 C   0  0  0  0  0  0  0  0  0  0  0  0
    3.5629  -47.8679    6.6025 O   0  0  0  0  0  0  0  0  0  0  0  0
    1.6061  -49.1679    6.3503 C   0  0  0  0  0  0  0  0  0  0  0  0
   -0.3127  -50.3896    6.2492 C   0  0  3  0  0  0  0  0  0  0  0  0
   -1.3056  -51.3826    6.3084 C   0  0  0  0  0  0  0  0  0  0  0  0
   -2.6361  -51.0463    5.9759 C   0  0  0  0  0  0  0  0  0  0  0  0
   -2.9446  -49.7367    5.5736 C   0  0  0  0  0  0  0  0  0  0  0  0
   -1.9388  -48.7516    5.5050 C   0  0  0  0  0  0  0  0  0  0  0  0
   -0.5911  -49.0537    5.8486 C   0  0  0  0  0  0  0  0  0  0  0  0
    0.6353  -48.2926    5.9041 C   0  0  0  0  0  0  0  0  0  0  0  0
    0.8089  -46.8342    5.5612 C   0  0  0  0  0  0  0  0  0  0  0  0
    0.8737  -45.9328    6.8109 C   0  0  0  0  0  0  0  0  0  0  0  0
   -0.4305  -45.9192    7.6156 C   0  0  0  0  0  0  0  0  0  0  0  0
   -1.3927  -45.1905    6.8684 O   0  0  0  0  0  0  0  0  0  0  0  0
   -2.6929  -45.1866    7.3131 C   0  0  0  0  0  0  0  0  0  0  0  0
   -3.1490  -45.8766    8.4660 C   0  0  0  0  0  0  0  0  0  0  0  0
   -4.5087  -45.8424    8.8313 C   0  0  0  0  0  0  0  0  0  0  0  0
   -5.4211  -45.0930    8.0629 C   0  0  0  0  0  0  0  0  0  0  0  0
   -4.9781  -44.3962    6.9226 C   0  0  0  0  0  0  0  0  0  0  0  0
   -3.6217  -44.4510    6.5497 C   0  0  0  0  0  0  0  0  0  0  0  0
    1.0444  -50.4156    6.5272 N   0  0  0  0  0  0  0  0  0  0  0  0
   -4.9806  -46.6345   10.0352 C   0  0  0  0  0  0  0  0  0  0  0  0
    4.4780  -47.9209    6.8521 H   0  0  0  0  0  0  0  0  0  0  0  0
   -0.1041  -50.6600    5.2036 H   0  0  0  0  0  0  0  0  0  0  0  0
   -1.0541  -52.3903    6.6045 H   0  0  0  0  0  0  0  0  0  0  0  0
   -3.4138  -51.7937    6.0308 H   0  0  0  0  0  0  0  0  0  0  0  0
   -3.9616  -49.4820    5.3144 H   0  0  0  0  0  0  0  0  0  0  0  0
   -2.1948  -47.7518    5.1867 H   0  0  0  0  0  0  0  0  0  0  0  0
    1.7430  -46.7151    4.9925 H   0  0  0  0  0  0  0  0  0  0  0  0
   -0.0414  -46.5149    4.9407 H   0  0  0  0  0  0  0  0  0  0  0  0
    1.6822  -46.2962    7.4622 H   0  0  0  0  0  0  0  0  0  0  0  0
    1.0963  -44.9048    6.4890 H   0  0  0  0  0  0  0  0  0  0  0  0
   -0.7824  -46.9490    7.7757 H   0  0  0  0  0  0  0  0  0  0  0  0
   -0.2652  -45.4328    8.5883 H   0  0  0  0  0  0  0  0  0  0  0  0
   -2.4469  -46.4332    9.0690 H   0  0  0  0  0  0  0  0  0  0  0  0
   -6.4618  -45.0530    8.3489 H   0  0  0  0  0  0  0  0  0  0  0  0
   -5.6778  -43.8205    6.3348 H   0  0  0  0  0  0  0  0  0  0  0  0
   -3.2889  -43.9231    5.6682 H   0  0  0  0  0  0  0  0  0  0  0  0
   -4.9196  -46.0054   10.9355 H   0  0  0  0  0  0  0  0  0  0  0  0
   -6.0223  -46.9519    9.8797 H   0  0  0  0  0  0  0  0  0  0  0  0
   -4.3424  -47.5212   10.1637 H   0  0  0  0  0  0  0  0  0  0  0  0
  1  2  2  0  0  0  0
  2  3  1  0  0  0  0
  2  4  1  0  0  0  0
  4 11  1  0  0  0  0
  4 22  2  0  0  0  0
  5  6  1  0  0  0  0
  5 10  1  0  0  0  0
  5 22  1  0  0  0  0
  6  7  2  0  0  0  0
  7  8  1  0  0  0  0
  8  9  2  0  0  0  0
  9 10  1  0  0  0  0
 10 11  2  0  0  0  0
 11 12  1  0  0  0  0
 12 13  1  0  0  0  0
 13 14  1  0  0  0  0
 14 15  1  0  0  0  0
 15 16  1  0  0  0  0
 16 17  2  0  0  0  0
 16 21  1  0  0  0  0
 17 18  1  0  0  0  0
 18 19  2  0  0  0  0
 18 23  1  0  0  0  0
 19 20  1  0  0  0  0
 20 21  2  0  0  0  0
  3 24  1  0  0  0  0
  5 25  1  0  0  0  0
  6 26  1  0  0  0  0
  7 27  1  0  0  0  0
  8 28  1  0  0  0  0
  9 29  1  0  0  0  0
 12 30  1  0  0  0  0
 12 31  1  0  0  0  0
 13 32  1  0  0  0  0
 13 33  1  0  0  0  0
 14 34  1  0  0  0  0
 14 35  1  0  0  0  0
 17 36  1  0  0  0  0
 19 37  1  0  0  0  0
 20 38  1  0  0  0  0
 21 39  1  0  0  0  0
 23 40  1  0  0  0  0
 23 41  1  0  0  0  0
 23 42  1  0  0  0  0
M  END
> <r_user_dG.exp>
-7.85321195175529

$$$$
30
  -OEChem-05162309453D
 Structure written by MMmdl.
 42 44  0     0  0  0  0  0  0999 V2000
    3.7086  -50.0138    7.0134 O   0  0  0  0  0  0  0  0  0  0  0  0
    3.0488  -49.0009    6.6642 C   0  0  0  0  0  0  0  0  0  0  0  0
    3.5629  -47.8679    6.6025 O   0  0  0  0  0  0  0  0  0  0  0  0
    1.6061  -49.1679    6.3503 C   0  0  0  0  0  0  0  0  0  0  0  0
   -0.3127  -50.3896    6.2492 C   0  0  0  0  0  0  0  0  0  0  0  0
   -1.3056  -51.3826    6.3084 C   0  0  0  0  0  0  0  0  0  0  0  0
   -2.6361  -51.0463    5.9759 C   0  0  0  0  0  0  0  0  0  0  0  0
   -2.9446  -49.7367    5.5736 C   0  0  0  0  0  0  0  0  0  0  0  0
   -1.9388  -48.7516    5.5050 C   0  0  0  0  0  0  0  0  0  0  0  0
   -0.5911  -49.0537    5.8486 C   0  0  0  0  0  0  0  0  0  0  0  0
    0.6353  -48.2926    5.9041 C   0  0  0  0  0  0  0  0  0  0  0  0
    0.8089  -46.8342    5.5612 C   0  0  0  0  0  0  0  0  0  0  0  0
    0.8737  -45.9328    6.8109 C   0  0  0  0  0  0  0  0  0  0  0  0
   -0.4305  -45.9192    7.6156 C   0  0  0  0  0  0  0  0  0  0  0  0
   -1.3927  -45.1905    6.8684 O   0  0  0  0  0  0  0  0  0  0  0  0
   -2.6929  -45.1866    7.3131 C   0  0  0  0  0  0  0  0  0  0  0  0
   -3.1490  -45.8766    8.4660 C   0  0  0  0  0  0  0  0  0  0  0  0
   -4.5087  -45.8424    8.8313 C   0  0  0  0  0  0  0  0  0  0  0  0
   -5.4211  -45.0930    8.0629 C   0  0  0  0  0  0  0  0  0  0  0  0
   -4.9781  -44.3962    6.9226 C   0  0  0  0  0  0  0  0  0  0  0  0
   -3.6217  -44.4510    6.5497 C   0  0  0  0  0  0  0  0  0  0  0  0
    1.0444  -50.4156    6.5272 N   0  0  0  0  0  0  0  0  0  0  0  0
   -4.9806  -46.6345   10.0352 C   0  0  0  0  0  0  0  0  0  0  0  0
    4.4780  -47.9209    6.8521 H   0  0  0  0  0  0  0  0  0  0  0  0
   -1.0541  -52.3903    6.6045 H   0  0  0  0  0  0  0  0  0  0  0  0
   -3.4138  -51.7937    6.0308 H   0  0  0  0  0  0  0  0  0  0  0  0
   -3.3811  -49.8114    4.5667 H   0  0  0  0  0  0  0  0  0  0  0  0
   -3.7042  -49.3625    6.2757 H   0  0  0  0  0  0  0  0  0  0  0  0
   -2.1948  -47.7518    5.1867 H   0  0  0  0  0  0  0  0  0  0  0  0
    1.7430  -46.7151    4.9925 H   0  0  0  0  0  0  0  0  0  0  0  0
   -0.0414  -46.5149    4.9407 H   0  0  0  0  0  0  0  0  0  0  0  0
    1.6822  -46.2962    7.4622 H   0  0  0  0  0  0  0  0  0  0  0  0
    1.0963  -44.9048    6.4890 H   0  0  0  0  0  0  0  0  0  0  0  0
   -0.7824  -46.9490    7.7757 H   0  0  0  0  0  0  0  0  0  0  0  0
   -0.2652  -45.4328    8.5883 H   0  0  0  0  0  0  0  0  0  0  0  0
   -2.4469  -46.4332    9.0690 H   0  0  0  0  0  0  0  0  0  0  0  0
   -6.4618  -45.0530    8.3489 H   0  0  0  0  0  0  0  0  0  0  0  0
   -5.6778  -43.8205    6.3348 H   0  0  0  0  0  0  0  0  0  0  0  0
   -3.2889  -43.9231    5.6682 H   0  0  0  0  0  0  0  0  0  0  0  0
   -4.9196  -46.0054   10.9355 H   0  0  0  0  0  0  0  0  0  0  0  0
   -6.0223  -46.9519    9.8797 H   0  0  0  0  0  0  0  0  0  0  0  0
   -4.3424  -47.5212   10.1637 H   0  0  0  0  0  0  0  0  0  0  0  0
  1  2  2  0  0  0  0
  2  3  1  0  0  0  0
  2  4  1  0  0  0  0
  4 11  2  0  0  0  0
  4 22  1  0  0  0  0
  5  6  1  0  0  0  0
  5 10  1  0  0  0  0
  5 22  2  0  0  0  0
  6  7  2  0  0  0  0
  7  8  1  0  0  0  0
  8  9  1  0  0  0  0
  9 10  2  0  0  0  0
 10 11  1  0  0  0  0
 11 12  1  0  0  0  0
 12 13  1  0  0  0  0
 13 14  1  0  0  0  0
 14 15  1  0  0  0  0
 15 16  1  0  0  0  0
 16 17  2  0  0  0  0
 16 21  1  0  0  0  0
 17 18  1  0  0  0  0
 18 19  2  0  0  0  0
 18 23  1  0  0  0  0
 19 20  1  0  0  0  0
 20 21  2  0  0  0  0
  3 24  1  0  0  0  0
  6 25  1  0  0  0  0
  7 26  1  0  0  0  0
  8 27  1  0  0  0  0
  8 28  1  0  0  0  0
  9 29  1  0  0  0  0
 12 30  1  0  0  0  0
 12 31  1  0  0  0  0
 13 32  1  0  0  0  0
 13 33  1  0  0  0  0
 14 34  1  0  0  0  0
 14 35  1  0  0  0  0
 17 36  1  0  0  0  0
 19 37  1  0  0  0  0
 20 38  1  0  0  0  0
 21 39  1  0  0  0  0
 23 40  1  0  0  0  0
 23 41  1  0  0  0  0
 23 42  1  0  0  0  0
M  END
> <r_user_dG.exp>
-7.85321195175529

$$$$
30
  -OEChem-05162309453D
 Structure written by MMmdl.
 42 44  0     0  0  0  0  0  0999 V2000
    3.7086  -50.0138    7.0134 O   0  0  0  0  0  0  0  0  0  0  0  0
    3.0488  -49.0009    6.6642 C   0  0  0  0  0  0  0  0  0  0  0  0
    3.5629  -47.8679    6.6025 O   0  0  0  0  0  0  0  0  0  0  0  0
    1.6061  -49.1679    6.3503 C   0  0  0  0  0  0  0  0  0  0  0  0
   -0.3127  -50.3896    6.2492 C   0  0  0  0  0  0  0  0  0  0  0  0
   -1.3056  -51.3826    6.3084 C   0  0  0  0  0  0  0  0  0  0  0  0
   -2.6361  -51.0463    5.9759 C   0  0  0  0  0  0  0  0  0  0  0  0
   -2.9446  -49.7367    5.5736 C   0  0  0  0  0  0  0  0  0  0  0  0
   -1.9388  -48.7516    5.5050 C   0  0  0  0  0  0  0  0  0  0  0  0
   -0.5911  -49.0537    5.8486 C   0  0  0  0  0  0  0  0  0  0  0  0
    0.6353  -48.2926    5.9041 C   0  0  0  0  0  0  0  0  0  0  0  0
    0.8089  -46.8342    5.5612 C   0  0  0  0  0  0  0  0  0  0  0  0
    0.8737  -45.9328    6.8109 C   0  0  0  0  0  0  0  0  0  0  0  0
   -0.4305  -45.9192    7.6156 C   0  0  0  0  0  0  0  0  0  0  0  0
   -1.3927  -45.1905    6.8684 O   0  0  0  0  0  0  0  0  0  0  0  0
   -2.6929  -45.1866    7.3131 C   0  0  0  0  0  0  0  0  0  0  0  0
   -3.1490  -45.8766    8.4660 C   0  0  0  0  0  0  0  0  0  0  0  0
   -4.5087  -45.8424    8.8313 C   0  0  0  0  0  0  0  0  0  0  0  0
   -5.4211  -45.0930    8.0629 C   0  0  0  0  0  0  0  0  0  0  0  0
   -4.9781  -44.3962    6.9226 C   0  0  0  0  0  0  0  0  0  0  0  0
   -3.6217  -44.4510    6.5497 C   0  0  0  0  0  0  0  0  0  0  0  0
    1.0444  -50.4156    6.5272 N   0  0  0  0  0  0  0  0  0  0  0  0
   -4.9806  -46.6345   10.0352 C   0  0  0  0  0  0  0  0  0  0  0  0
    4.4780  -47.9209    6.8521 H   0  0  0  0  0  0  0  0  0  0  0  0
   -1.0541  -52.3903    6.6045 H   0  0  0  0  0  0  0  0  0  0  0  0
   -2.9368  -51.7116    5.1531 H   0  0  0  0  0  0  0  0  0  0  0  0
   -3.2500  -51.2600    6.8633 H   0  0  0  0  0  0  0  0  0  0  0  0
   -3.9616  -49.4820    5.3144 H   0  0  0  0  0  0  0  0  0  0  0  0
   -2.1948  -47.7518    5.1867 H   0  0  0  0  0  0  0  0  0  0  0  0
    1.7430  -46.7151    4.9925 H   0  0  0  0  0  0  0  0  0  0  0  0
   -0.0414  -46.5149    4.9407 H   0  0  0  0  0  0  0  0  0  0  0  0
    1.6822  -46.2962    7.4622 H   0  0  0  0  0  0  0  0  0  0  0  0
    1.0963  -44.9048    6.4890 H   0  0  0  0  0  0  0  0  0  0  0  0
   -0.7824  -46.9490    7.7757 H   0  0  0  0  0  0  0  0  0  0  0  0
   -0.2652  -45.4328    8.5883 H   0  0  0  0  0  0  0  0  0  0  0  0
   -2.4469  -46.4332    9.0690 H   0  0  0  0  0  0  0  0  0  0  0  0
   -6.4618  -45.0530    8.3489 H   0  0  0  0  0  0  0  0  0  0  0  0
   -5.6778  -43.8205    6.3348 H   0  0  0  0  0  0  0  0  0  0  0  0
   -3.2889  -43.9231    5.6682 H   0  0  0  0  0  0  0  0  0  0  0  0
   -4.9196  -46.0054   10.9355 H   0  0  0  0  0  0  0  0  0  0  0  0
   -6.0223  -46.9519    9.8797 H   0  0  0  0  0  0  0  0  0  0  0  0
   -4.3424  -47.5212   10.1637 H   0  0  0  0  0  0  0  0  0  0  0  0
  1  2  2  0  0  0  0
  2  3  1  0  0  0  0
  2  4  1  0  0  0  0
  4 11  1  0  0  0  0
  4 22  2  0  0  0  0
  5  6  2  0  0  0  0
  5 10  1  0  0  0  0
  5 22  1  0  0  0  0
  6  7  1  0  0  0  0
  7  8  1  0  0  0  0
  8  9  2  0  0  0  0
  9 10  1  0  0  0  0
 10 11  2  0  0  0  0
 11 12  1  0  0  0  0
 12 13  1  0  0  0  0
 13 14  1  0  0  0  0
 14 15  1  0  0  0  0
 15 16  1  0  0  0  0
 16 17  2  0  0  0  0
 16 21  1  0  0  0  0
 17 18  1  0  0  0  0
 18 19  2  0  0  0  0
 18 23  1  0  0  0  0
 19 20  1  0  0  0  0
 20 21  2  0  0  0  0
  3 24  1  0  0  0  0
  6 25  1  0  0  0  0
  7 26  1  0  0  0  0
  7 27  1  0  0  0  0
  8 28  1  0  0  0  0
  9 29  1  0  0  0  0
 12 30  1  0  0  0  0
 12 31  1  0  0  0  0
 13 32  1  0  0  0  0
 13 33  1  0  0  0  0
 14 34  1  0  0  0  0
 14 35  1  0  0  0  0
 17 36  1  0  0  0  0
 19 37  1  0  0  0  0
 20 38  1  0  0  0  0
 21 39  1  0  0  0  0
 23 40  1  0  0  0  0
 23 41  1  0  0  0  0
 23 42  1  0  0  0  0
M  END
> <r_user_dG.exp>
-7.85321195175529

$$$$
30
  -OEChem-05162309453D
 Structure written by MMmdl.
 42 44  0     0  0  0  0  0  0999 V2000
    3.7086  -50.0138    7.0134 O   0  0  0  0  0  0  0  0  0  0  0  0
    3.0488  -49.0009    6.6642 C   0  0  0  0  0  0  0  0  0  0  0  0
    3.5629  -47.8679    6.6025 O   0  0  0  0  0  0  0  0  0  0  0  0
    1.6061  -49.1679    6.3503 C   0  0  0  0  0  0  0  0  0  0  0  0
   -0.3127  -50.3896    6.2492 C   0  0  0  0  0  0  0  0  0  0  0  0
   -1.3056  -51.3826    6.3084 C   0  0  0  0  0  0  0  0  0  0  0  0
   -2.6361  -51.0463    5.9759 C   0  0  0  0  0  0  0  0  0  0  0  0
   -2.9446  -49.7367    5.5736 C   0  0  0  0  0  0  0  0  0  0  0  0
   -1.9388  -48.7516    5.5050 C   0  0  0  0  0  0  0  0  0  0  0  0
   -0.5911  -49.0537    5.8486 C   0  0  0  0  0  0  0  0  0  0  0  0
    0.6353  -48.2926    5.9041 C   0  0  0  0  0  0  0  0  0  0  0  0
    0.8089  -46.8342    5.5612 C   0  0  0  0  0  0  0  0  0  0  0  0
    0.8737  -45.9328    6.8109 C   0  0  0  0  0  0  0  0  0  0  0  0
   -0.4305  -45.9192    7.6156 C   0  0  0  0  0  0  0  0  0  0  0  0
   -1.3927  -45.1905    6.8684 O   0  0  0  0  0  0  0  0  0  0  0  0
   -2.6929  -45.1866    7.3131 C   0  0  0  0  0  0  0  0  0  0  0  0
   -3.1490  -45.8766    8.4660 C   0  0  0  0  0  0  0  0  0  0  0  0
   -4.5087  -45.8424    8.8313 C   0  0  0  0  0  0  0  0  0  0  0  0
   -5.4211  -45.0930    8.0629 C   0  0  0  0  0  0  0  0  0  0  0  0
   -4.9781  -44.3962    6.9226 C   0  0  0  0  0  0  0  0  0  0  0  0
   -3.6217  -44.4510    6.5497 C   0  0  0  0  0  0  0  0  0  0  0  0
    1.0444  -50.4156    6.5272 N   0  0  0  0  0  0  0  0  0  0  0  0
   -4.9806  -46.6345   10.0352 C   0  0  0  0  0  0  0  0  0  0  0  0
    4.4780  -47.9209    6.8521 H   0  0  0  0  0  0  0  0  0  0  0  0
   -0.9969  -52.1871    5.6247 H   0  0  0  0  0  0  0  0  0  0  0  0
   -1.3185  -51.7632    7.3404 H   0  0  0  0  0  0  0  0  0  0  0  0
   -3.4138  -51.7937    6.0308 H   0  0  0  0  0  0  0  0  0  0  0  0
   -3.9616  -49.4820    5.3144 H   0  0  0  0  0  0  0  0  0  0  0  0
   -2.1948  -47.7518    5.1867 H   0  0  0  0  0  0  0  0  0  0  0  0
    1.7430  -46.7151    4.9925 H   0  0  0  0  0  0  0  0  0  0  0  0
   -0.0414  -46.5149    4.9407 H   0  0  0  0  0  0  0  0  0  0  0  0
    1.6822  -46.2962    7.4622 H   0  0  0  0  0  0  0  0  0  0  0  0
    1.0963  -44.9048    6.4890 H   0  0  0  0  0  0  0  0  0  0  0  0
   -0.7824  -46.9490    7.7757 H   0  0  0  0  0  0  0  0  0  0  0  0
   -0.2652  -45.4328    8.5883 H   0  0  0  0  0  0  0  0  0  0  0  0
   -2.4469  -46.4332    9.0690 H   0  0  0  0  0  0  0  0  0  0  0  0
   -6.4618  -45.0530    8.3489 H   0  0  0  0  0  0  0  0  0  0  0  0
   -5.6778  -43.8205    6.3348 H   0  0  0  0  0  0  0  0  0  0  0  0
   -3.2889  -43.9231    5.6682 H   0  0  0  0  0  0  0  0  0  0  0  0
   -4.9196  -46.0054   10.9355 H   0  0  0  0  0  0  0  0  0  0  0  0
   -6.0223  -46.9519    9.8797 H   0  0  0  0  0  0  0  0  0  0  0  0
   -4.3424  -47.5212   10.1637 H   0  0  0  0  0  0  0  0  0  0  0  0
  1  2  2  0  0  0  0
  2  3  1  0  0  0  0
  2  4  1  0  0  0  0
  4 11  2  0  0  0  0
  4 22  1  0  0  0  0
  5  6  1  0  0  0  0
  5 10  1  0  0  0  0
  5 22  2  0  0  0  0
  6  7  1  0  0  0  0
  7  8  2  0  0  0  0
  8  9  1  0  0  0  0
  9 10  2  0  0  0  0
 10 11  1  0  0  0  0
 11 12  1  0  0  0  0
 12 13  1  0  0  0  0
 13 14  1  0  0  0  0
 14 15  1  0  0  0  0
 15 16  1  0  0  0  0
 16 17  2  0  0  0  0
 16 21  1  0  0  0  0
 17 18  1  0  0  0  0
 18 19  2  0  0  0  0
 18 23  1  0  0  0  0
 19 20  1  0  0  0  0
 20 21  2  0  0  0  0
  3 24  1  0  0  0  0
  6 25  1  0  0  0  0
  6 26  1  0  0  0  0
  7 27  1  0  0  0  0
  8 28  1  0  0  0  0
  9 29  1  0  0  0  0
 12 30  1  0  0  0  0
 12 31  1  0  0  0  0
 13 32  1  0  0  0  0
 13 33  1  0  0  0  0
 14 34  1  0  0  0  0
 14 35  1  0  0  0  0
 17 36  1  0  0  0  0
 19 37  1  0  0  0  0
 20 38  1  0  0  0  0
 21 39  1  0  0  0  0
 23 40  1  0  0  0  0
 23 41  1  0  0  0  0
 23 42  1  0  0  0  0
M  END
> <r_user_dG.exp>
-7.85321195175529

$$$$
30
  -OEChem-05162309453D
 Structure written by MMmdl.
 42 44  0     0  0  0  0  0  0999 V2000
    3.7086  -50.0138    7.0134 O   0  0  0  0  0  0  0  0  0  0  0  0
    3.0488  -49.0009    6.6642 C   0  0  0  0  0  0  0  0  0  0  0  0
    3.5629  -47.8679    6.6025 O   0  0  0  0  0  0  0  0  0  0  0  0
    1.6061  -49.1679    6.3503 C   0  0  0  0  0  0  0  0  0  0  0  0
   -0.3127  -50.3896    6.2492 C   0  0  0  0  0  0  0  0  0  0  0  0
   -1.3056  -51.3826    6.3084 C   0  0  0  0  0  0  0  0  0  0  0  0
   -2.6361  -51.0463    5.9759 C   0  0  0  0  0  0  0  0  0  0  0  0
   -2.9446  -49.7367    5.5736 C   0  0  0  0  0  0  0  0  0  0  0  0
   -1.9388  -48.7516    5.5050 C   0  0  0  0  0  0  0  0  0  0  0  0
   -0.5911  -49.0537    5.8486 C   0  0  0  0  0  0  0  0  0  0  0  0
    0.6353  -48.2926    5.9041 C   0  0  0  0  0  0  0  0  0  0  0  0
    0.8089  -46.8342    5.5612 C   0  0  0  0  0  0  0  0  0  0  0  0
    0.8737  -45.9328    6.8109 C   0  0  0  0  0  0  0  0  0  0  0  0
   -0.4305  -45.9192    7.6156 C   0  0  0  0  0  0  0  0  0  0  0  0
   -1.3927  -45.1905    6.8684 O   0  0  0  0  0  0  0  0  0  0  0  0
   -2.6929  -45.1866    7.3131 C   0  0  0  0  0  0  0  0  0  0  0  0
   -3.1490  -45.8766    8.4660 C   0  0  0  0  0  0  0  0  0  0  0  0
   -4.5087  -45.8424    8.8313 C   0  0  0  0  0  0  0  0  0  0  0  0
   -5.4211  -45.0930    8.0629 C   0  0  0  0  0  0  0  0  0  0  0  0
   -4.9781  -44.3962    6.9226 C   0  0  0  0  0  0  0  0  0  0  0  0
   -3.6217  -44.4510    6.5497 C   0  0  0  0  0  0  0  0  0  0  0  0
    1.0444  -50.4156    6.5272 N   0  0  0  0  0  0  0  0  0  0  0  0
   -4.9806  -46.6345   10.0352 C   0  0  0  0  0  0  0  0  0  0  0  0
    4.4780  -47.9209    6.8521 H   0  0  0  0  0  0  0  0  0  0  0  0
   -1.0541  -52.3903    6.6045 H   0  0  0  0  0  0  0  0  0  0  0  0
   -3.4138  -51.7937    6.0308 H   0  0  0  0  0  0  0  0  0  0  0  0
   -3.9616  -49.4820    5.3144 H   0  0  0  0  0  0  0  0  0  0  0  0
   -1.9233  -48.3926    4.4654 H   0  0  0  0  0  0  0  0  0  0  0  0
   -2.2554  -47.9348    6.1703 H   0  0  0  0  0  0  0  0  0  0  0  0
    1.7430  -46.7151    4.9925 H   0  0  0  0  0  0  0  0  0  0  0  0
   -0.0414  -46.5149    4.9407 H   0  0  0  0  0  0  0  0  0  0  0  0
    1.6822  -46.2962    7.4622 H   0  0  0  0  0  0  0  0  0  0  0  0
    1.0963  -44.9048    6.4890 H   0  0  0  0  0  0  0  0  0  0  0  0
   -0.7824  -46.9490    7.7757 H   0  0  0  0  0  0  0  0  0  0  0  0
   -0.2652  -45.4328    8.5883 H   0  0  0  0  0  0  0  0  0  0  0  0
   -2.4469  -46.4332    9.0690 H   0  0  0  0  0  0  0  0  0  0  0  0
   -6.4618  -45.0530    8.3489 H   0  0  0  0  0  0  0  0  0  0  0  0
   -5.6778  -43.8205    6.3348 H   0  0  0  0  0  0  0  0  0  0  0  0
   -3.2889  -43.9231    5.6682 H   0  0  0  0  0  0  0  0  0  0  0  0
   -4.9196  -46.0054   10.9355 H   0  0  0  0  0  0  0  0  0  0  0  0
   -6.0223  -46.9519    9.8797 H   0  0  0  0  0  0  0  0  0  0  0  0
   -4.3424  -47.5212   10.1637 H   0  0  0  0  0  0  0  0  0  0  0  0
  1  2  2  0  0  0  0
  2  3  1  0  0  0  0
  2  4  1  0  0  0  0
  4 11  1  0  0  0  0
  4 22  2  0  0  0  0
  5  6  2  0  0  0  0
  5 10  1  0  0  0  0
  5 22  1  0  0  0  0
  6  7  1  0  0  0  0
  7  8  2  0  0  0  0
  8  9  1  0  0  0  0
  9 10  1  0  0  0  0
 10 11  2  0  0  0  0
 11 12  1  0  0  0  0
 12 13  1  0  0  0  0
 13 14  1  0  0  0  0
 14 15  1  0  0  0  0
 15 16  1  0  0  0  0
 16 17  2  0  0  0  0
 16 21  1  0  0  0  0
 17 18  1  0  0  0  0
 18 19  2  0  0  0  0
 18 23  1  0  0  0  0
 19 20  1  0  0  0  0
 20 21  2  0  0  0  0
  3 24  1  0  0  0  0
  6 25  1  0  0  0  0
  7 26  1  0  0  0  0
  8 27  1  0  0  0  0
  9 28  1  0  0  0  0
  9 29  1  0  0  0  0
 12 30  1  0  0  0  0
 12 31  1  0  0  0  0
 13 32  1  0  0  0  0
 13 33  1  0  0  0  0
 14 34  1  0  0  0  0
 14 35  1  0  0  0  0
 17 36  1  0  0  0  0
 19 37  1  0  0  0  0
 20 38  1  0  0  0  0
 21 39  1  0  0  0  0
 23 40  1  0  0  0  0
 23 41  1  0  0  0  0
 23 42  1  0  0  0  0
M  END
> <r_user_dG.exp>
-7.85321195175529

$$$$
30
  -OEChem-05162309453D
 Structure written by MMmdl.
 42 44  0     0  0  0  0  0  0999 V2000
    3.7086  -50.0138    7.0134 O   0  0  0  0  0  0  0  0  0  0  0  0
    3.0488  -49.0009    6.6642 C   0  0  0  0  0  0  0  0  0  0  0  0
    3.5629  -47.8679    6.6025 O   0  0  0  0  0  0  0  0  0  0  0  0
    1.6061  -49.1679    6.3503 C   0  0  0  0  0  0  0  0  0  0  0  0
   -0.3127  -50.3896    6.2492 C   0  0  0  0  0  0  0  0  0  0  0  0
   -1.3056  -51.3826    6.3084 C   0  0  0  0  0  0  0  0  0  0  0  0
   -2.6361  -51.0463    5.9759 C   0  0  0  0  0  0  0  0  0  0  0  0
   -2.9446  -49.7367    5.5736 C   0  0  0  0  0  0  0  0  0  0  0  0
   -1.9388  -48.7516    5.5050 C   0  0  0  0  0  0  0  0  0  0  0  0
   -0.5911  -49.0537    5.8486 C   0  0  0  0  0  0  0  0  0  0  0  0
    0.6353  -48.2926    5.9041 C   0  0  0  0  0  0  0  0  0  0  0  0
    0.8089  -46.8342    5.5612 C   0  0  0  0  0  0  0  0  0  0  0  0
    0.8737  -45.9328    6.8109 C   0  0  0  0  0  0  0  0  0  0  0  0
   -0.4305  -45.9192    7.6156 C   0  0  0  0  0  0  0  0  0  0  0  0
   -1.3927  -45.1905    6.8684 O   0  0  0  0  0  0  0  0  0  0  0  0
   -2.6929  -45.1866    7.3131 C   0  0  0  0  0  0  0  0  0  0  0  0
   -3.1490  -45.8766    8.4660 C   0  0  0  0  0  0  0  0  0  0  0  0
   -4.5087  -45.8424    8.8313 C   0  0  0  0  0  0  0  0  0  0  0  0
   -5.4211  -45.0930    8.0629 C   0  0  0  0  0  0  0  0  0  0  0  0
   -4.9781  -44.3962    6.9226 C   0  0  0  0  0  0  0  0  0  0  0  0
   -3.6217  -44.4510    6.5497 C   0  0  0  0  0  0  0  0  0  0  0  0
    1.0444  -50.4156    6.5272 N   0  0  0  0  0  0  0  0  0  0  0  0
   -4.9806  -46.6345   10.0352 C   0  0  0  0  0  0  0  0  0  0  0  0
    3.1461  -50.7792    6.9986 H   0  0  0  0  0  0  0  0  0  0  0  0
    2.9095  -47.2381    6.3215 H   0  0  0  0  0  0  0  0  0  0  0  0
   -1.0541  -52.3903    6.6045 H   0  0  0  0  0  0  0  0  0  0  0  0
   -3.4138  -51.7937    6.0308 H   0  0  0  0  0  0  0  0  0  0  0  0
   -3.9616  -49.4820    5.3144 H   0  0  0  0  0  0  0  0  0  0  0  0
   -2.1948  -47.7518    5.1867 H   0  0  0  0  0  0  0  0  0  0  0  0
    1.7430  -46.7151    4.9925 H   0  0  0  0  0  0  0  0  0  0  0  0
   -0.0414  -46.5149    4.9407 H   0  0  0  0  0  0  0  0  0  0  0  0
    1.6822  -46.2962    7.4622 H   0  0  0  0  0  0  0  0  0  0  0  0
    1.0963  -44.9048    6.4890 H   0  0  0  0  0  0  0  0  0  0  0  0
   -0.7824  -46.9490    7.7757 H   0  0  0  0  0  0  0  0  0  0  0  0
   -0.2652  -45.4328    8.5883 H   0  0  0  0  0  0  0  0  0  0  0  0
   -2.4469  -46.4332    9.0690 H   0  0  0  0  0  0  0  0  0  0  0  0
   -6.4618  -45.0530    8.3489 H   0  0  0  0  0  0  0  0  0  0  0  0
   -5.6778  -43.8205    6.3348 H   0  0  0  0  0  0  0  0  0  0  0  0
   -3.2889  -43.9231    5.6682 H   0  0  0  0  0  0  0  0  0  0  0  0
   -4.9196  -46.0054   10.9355 H   0  0  0  0  0  0  0  0  0  0  0  0
   -6.0223  -46.9519    9.8797 H   0  0  0  0  0  0  0  0  0  0  0  0
   -4.3424  -47.5212   10.1637 H   0  0  0  0  0  0  0  0  0  0  0  0
  1  2  1  0  0  0  0
  2  3  1  0  0  0  0
  2  4  2  0  0  0  0
  4 11  1  0  0  0  0
  4 22  1  0  0  0  0
  5  6  1  0  0  0  0
  5 10  1  0  0  0  0
  5 22  2  0  0  0  0
  6  7  2  0  0  0  0
  7  8  1  0  0  0  0
  8  9  2  0  0  0  0
  9 10  1  0  0  0  0
 10 11  2  0  0  0  0
 11 12  1  0  0  0  0
 12 13  1  0  0  0  0
 13 14  1  0  0  0  0
 14 15  1  0  0  0  0
 15 16  1  0  0  0  0
 16 17  2  0  0  0  0
 16 21  1  0  0  0  0
 17 18  1  0  0  0  0
 18 19  2  0  0  0  0
 18 23  1  0  0  0  0
 19 20  1  0  0  0  0
 20 21  2  0  0  0  0
  1 24  1  0  0  0  0
  3 25  1  0  0  0  0
  6 26  1  0  0  0  0
  7 27  1  0  0  0  0
  8 28  1  0  0  0  0
  9 29  1  0  0  0  0
 12 30  1  0  0  0  0
 12 31  1  0  0  0  0
 13 32  1  0  0  0  0
 13 33  1  0  0  0  0
 14 34  1  0  0  0  0
 14 35  1  0  0  0  0
 17 36  1  0  0  0  0
 19 37  1  0  0  0  0
 20 38  1  0  0  0  0
 21 39  1  0  0  0  0
 23 40  1  0  0  0  0
 23 41  1  0  0  0  0
 23 42  1  0  0  0  0
M  END
> <r_user_dG.exp>
-7.85321195175529

$$$$
