67
  -OEChem-05162309453D
 Structure written by MMmdl.
 44 46  0     0  0  0  0  0  0999 V2000
    3.5644  -47.8285    6.1892 O   0  0  0  0  0  0  0  0  0  0  0  0
    3.0362  -48.8080    6.7428 C   0  0  0  0  0  0  0  0  0  0  0  0
    3.6696  -49.4562    7.6245 O   0  0  0  0  0  0  0  0  0  0  0  0
    1.6425  -49.1600    6.4068 C   0  0  0  0  0  0  0  0  0  0  0  0
   -0.1840  -50.4273    6.5471 C   0  0  0  0  0  0  0  0  0  0  0  0
   -1.0943  -51.4430    6.8742 C   0  0  0  0  0  0  0  0  0  0  0  0
   -2.3945  -51.3656    6.3648 C   0  0  0  0  0  0  0  0  0  0  0  0
   -2.7687  -50.2873    5.5289 C   0  0  0  0  0  0  0  0  0  0  0  0
   -1.8174  -49.2864    5.2062 C   0  0  0  0  0  0  0  0  0  0  0  0
   -0.4966  -49.3367    5.7159 C   0  0  0  0  0  0  0  0  0  0  0  0
    0.6834  -48.5264    5.6415 C   0  0  0  0  0  0  0  0  0  0  0  0
    0.8055  -47.2137    4.9079 C   0  0  0  0  0  0  0  0  0  0  0  0
    0.8087  -45.9824    5.8366 C   0  0  0  0  0  0  0  0  0  0  0  0
   -0.4323  -45.8572    6.7332 C   0  0  0  0  0  0  0  0  0  0  0  0
   -1.5675  -45.5507    5.9368 O   0  0  0  0  0  0  0  0  0  0  0  0
   -2.8022  -45.4950    6.5528 C   0  0  0  0  0  0  0  0  0  0  0  0
   -3.0327  -45.8036    7.9119 C   0  0  0  0  0  0  0  0  0  0  0  0
   -4.3369  -45.7633    8.4552 C   0  0  0  0  0  0  0  0  0  0  0  0
   -4.5594  -46.1410    9.9070 C   0  0  0  0  0  0  0  0  0  0  0  0
   -5.4287  -45.3910    7.6286 C   0  0  0  0  0  0  0  0  0  0  0  0
   -7.0379  -45.3587    8.2748 Cl  0  0  0  0  0  0  0  0  0  0  0  0
   -5.2055  -45.0557    6.2744 C   0  0  0  0  0  0  0  0  0  0  0  0
   -6.3500  -44.6517    5.3655 C   0  0  0  0  0  0  0  0  0  0  0  0
   -3.8961  -45.1147    5.7492 C   0  0  0  0  0  0  0  0  0  0  0  0
    1.1314  -50.3169    6.9579 O   0  0  0  0  0  0  0  0  0  0  0  0
    4.5286  -49.0692    7.7467 H   0  0  0  0  0  0  0  0  0  0  0  0
   -0.7976  -52.2672    7.5059 H   0  0  0  0  0  0  0  0  0  0  0  0
   -3.1152  -52.1315    6.6104 H   0  0  0  0  0  0  0  0  0  0  0  0
   -3.7738  -50.2267    5.1385 H   0  0  0  0  0  0  0  0  0  0  0  0
   -2.1052  -48.4705    4.5598 H   0  0  0  0  0  0  0  0  0  0  0  0
    1.7460  -47.2209    4.3374 H   0  0  0  0  0  0  0  0  0  0  0  0
   -0.0434  -47.1233    4.2142 H   0  0  0  0  0  0  0  0  0  0  0  0
    1.6957  -46.0429    6.4843 H   0  0  0  0  0  0  0  0  0  0  0  0
    0.8727  -45.0802    5.2106 H   0  0  0  0  0  0  0  0  0  0  0  0
   -0.6007  -46.8082    7.2598 H   0  0  0  0  0  0  0  0  0  0  0  0
   -0.2733  -45.0543    7.4681 H   0  0  0  0  0  0  0  0  0  0  0  0
   -2.2005  -46.0742    8.5449 H   0  0  0  0  0  0  0  0  0  0  0  0
   -4.4757  -45.2432   10.5370 H   0  0  0  0  0  0  0  0  0  0  0  0
   -5.5624  -46.5776   10.0226 H   0  0  0  0  0  0  0  0  0  0  0  0
   -3.8016  -46.8766   10.2147 H   0  0  0  0  0  0  0  0  0  0  0  0
   -6.4846  -43.5608    5.4073 H   0  0  0  0  0  0  0  0  0  0  0  0
   -6.1219  -44.9535    4.3326 H   0  0  0  0  0  0  0  0  0  0  0  0
   -7.2740  -45.1480    5.6970 H   0  0  0  0  0  0  0  0  0  0  0  0
   -3.7295  -44.8637    4.7121 H   0  0  0  0  0  0  0  0  0  0  0  0
  1  2  2  0  0  0  0
  2  3  1  0  0  0  0
  2  4  1  0  0  0  0
  4 11  2  0  0  0  0
  4 25  1  0  0  0  0
  5  6  2  0  0  0  0
  5 10  1  0  0  0  0
  5 25  1  0  0  0  0
  6  7  1  0  0  0  0
  7  8  2  0  0  0  0
  8  9  1  0  0  0  0
  9 10  2  0  0  0  0
 10 11  1  0  0  0  0
 11 12  1  0  0  0  0
 12 13  1  0  0  0  0
 13 14  1  0  0  0  0
 14 15  1  0  0  0  0
 15 16  1  0  0  0  0
 16 17  2  0  0  0  0
 16 24  1  0  0  0  0
 17 18  1  0  0  0  0
 18 19  1  0  0  0  0
 18 20  2  0  0  0  0
 20 21  1  0  0  0  0
 20 22  1  0  0  0  0
 22 23  1  0  0  0  0
 22 24  2  0  0  0  0
  3 26  1  0  0  0  0
  6 27  1  0  0  0  0
  7 28  1  0  0  0  0
  8 29  1  0  0  0  0
  9 30  1  0  0  0  0
 12 31  1  0  0  0  0
 12 32  1  0  0  0  0
 13 33  1  0  0  0  0
 13 34  1  0  0  0  0
 14 35  1  0  0  0  0
 14 36  1  0  0  0  0
 17 37  1  0  0  0  0
 19 38  1  0  0  0  0
 19 39  1  0  0  0  0
 19 40  1  0  0  0  0
 23 41  1  0  0  0  0
 23 42  1  0  0  0  0
 23 43  1  0  0  0  0
 24 44  1  0  0  0  0
M  END
> <r_user_dG.exp>
-7.58092456527552

$$$$
