66
  -OEChem-05162309453D
 Structure written by MMmdl.
 44 47  0     0  0  0  0  0  0999 V2000
    3.5632  -47.8394    5.6651 O   0  0  0  0  0  0  0  0  0  0  0  0
    3.0547  -48.6446    6.4687 C   0  0  0  0  0  0  0  0  0  0  0  0
    3.7176  -49.0437    7.4483 O   0  0  0  0  0  0  0  0  0  0  0  0
    1.6404  -49.0782    6.2866 C   0  0  0  0  0  0  0  0  0  0  0  0
    1.2183  -50.6024    7.0271 S   0  0  0  0  0  0  0  0  0  0  0  0
   -0.4520  -50.4734    6.4812 C   0  0  0  0  0  0  0  0  0  0  0  0
   -1.5140  -51.3853    6.6849 C   0  0  0  0  0  0  0  0  0  0  0  0
   -2.8051  -51.0838    6.2163 C   0  0  0  0  0  0  0  0  0  0  0  0
   -3.0350  -49.8729    5.5476 C   0  0  0  0  0  0  0  0  0  0  0  0
   -1.9701  -48.9821    5.3251 C   0  0  0  0  0  0  0  0  0  0  0  0
   -0.6468  -49.2498    5.7659 C   0  0  0  0  0  0  0  0  0  0  0  0
    0.5741  -48.4756    5.6336 C   0  0  0  0  0  0  0  0  0  0  0  0
    0.6517  -47.1469    4.9149 C   0  0  0  0  0  0  0  0  0  0  0  0
    0.7584  -45.9333    5.8538 C   0  0  0  0  0  0  0  0  0  0  0  0
   -0.2819  -45.9205    6.9846 C   0  0  0  0  0  0  0  0  0  0  0  0
   -1.5969  -45.7351    6.4764 O   0  0  0  0  0  0  0  0  0  0  0  0
   -2.6622  -45.8427    7.3608 C   0  0  0  0  0  0  0  0  0  0  0  0
   -4.8922  -46.0665    9.1171 C   0  0  0  0  0  0  0  0  0  0  0  0
   -3.6002  -46.3844    9.5752 C   0  0  0  0  0  0  0  0  0  0  0  0
   -2.4954  -46.2648    8.7080 C   0  0  0  0  0  0  0  0  0  0  0  0
   -1.2466  -52.8788    7.5124 Cl  0  0  0  0  0  0  0  0  0  0  0  0
   -5.0761  -45.6435    7.7862 C   0  0  0  0  0  0  0  0  0  0  0  0
   -3.9716  -45.5347    6.9092 C   0  0  0  0  0  0  0  0  0  0  0  0
   -4.1999  -45.1108    5.5812 C   0  0  0  0  0  0  0  0  0  0  0  0
   -5.4996  -44.7947    5.1453 C   0  0  0  0  0  0  0  0  0  0  0  0
   -6.5848  -44.9082    6.0206 C   0  0  0  0  0  0  0  0  0  0  0  0
   -6.3755  -45.3310    7.3422 C   0  0  0  0  0  0  0  0  0  0  0  0
    4.5785  -48.6422    7.4334 H   0  0  0  0  0  0  0  0  0  0  0  0
   -3.6153  -51.7811    6.3706 H   0  0  0  0  0  0  0  0  0  0  0  0
   -4.0284  -49.6249    5.2040 H   0  0  0  0  0  0  0  0  0  0  0  0
   -2.1658  -48.0594    4.7991 H   0  0  0  0  0  0  0  0  0  0  0  0
    1.5369  -47.1580    4.2619 H   0  0  0  0  0  0  0  0  0  0  0  0
   -0.2545  -47.0316    4.3022 H   0  0  0  0  0  0  0  0  0  0  0  0
    1.7608  -45.9343    6.3068 H   0  0  0  0  0  0  0  0  0  0  0  0
    0.6279  -45.0204    5.2542 H   0  0  0  0  0  0  0  0  0  0  0  0
   -0.2378  -46.8789    7.5226 H   0  0  0  0  0  0  0  0  0  0  0  0
   -0.0469  -45.0996    7.6780 H   0  0  0  0  0  0  0  0  0  0  0  0
   -5.7388  -46.1465    9.7829 H   0  0  0  0  0  0  0  0  0  0  0  0
   -3.4551  -46.7201   10.5914 H   0  0  0  0  0  0  0  0  0  0  0  0
   -1.5060  -46.4977    9.0730 H   0  0  0  0  0  0  0  0  0  0  0  0
   -3.3700  -45.0287    4.8950 H   0  0  0  0  0  0  0  0  0  0  0  0
   -5.6602  -44.4629    4.1302 H   0  0  0  0  0  0  0  0  0  0  0  0
   -7.5818  -44.6709    5.6799 H   0  0  0  0  0  0  0  0  0  0  0  0
   -7.2121  -45.4169    8.0198 H   0  0  0  0  0  0  0  0  0  0  0  0
  1  2  2  0  0  0  0
  2  3  1  0  0  0  0
  2  4  1  0  0  0  0
  4  5  1  0  0  0  0
  4 12  2  0  0  0  0
  5  6  1  0  0  0  0
  6  7  2  0  0  0  0
  6 11  1  0  0  0  0
  7  8  1  0  0  0  0
  7 21  1  0  0  0  0
  8  9  2  0  0  0  0
  9 10  1  0  0  0  0
 10 11  2  0  0  0  0
 11 12  1  0  0  0  0
 12 13  1  0  0  0  0
 13 14  1  0  0  0  0
 14 15  1  0  0  0  0
 15 16  1  0  0  0  0
 16 17  1  0  0  0  0
 17 20  2  0  0  0  0
 17 23  1  0  0  0  0
 18 19  2  0  0  0  0
 18 22  1  0  0  0  0
 19 20  1  0  0  0  0
 22 23  2  0  0  0  0
 22 27  1  0  0  0  0
 23 24  1  0  0  0  0
 24 25  2  0  0  0  0
 25 26  1  0  0  0  0
 26 27  2  0  0  0  0
  3 28  1  0  0  0  0
  8 29  1  0  0  0  0
  9 30  1  0  0  0  0
 10 31  1  0  0  0  0
 13 32  1  0  0  0  0
 13 33  1  0  0  0  0
 14 34  1  0  0  0  0
 14 35  1  0  0  0  0
 15 36  1  0  0  0  0
 15 37  1  0  0  0  0
 18 38  1  0  0  0  0
 19 39  1  0  0  0  0
 20 40  1  0  0  0  0
 24 41  1  0  0  0  0
 25 42  1  0  0  0  0
 26 43  1  0  0  0  0
 27 44  1  0  0  0  0
M  END
> <r_user_dG.exp>
-8.43167143836328

$$$$
