46
  -OEChem-05162309453D
 Structure written by MMmdl.
 46 49  0     0  0  0  0  0  0999 V2000
    3.5634  -47.8222    6.3169 O   0  0  0  0  0  0  0  0  0  0  0  0
    3.0096  -48.8325    6.8076 C   0  0  0  0  0  0  0  0  0  0  0  0
    3.6259  -49.6047    7.5794 O   0  0  0  0  0  0  0  0  0  0  0  0
    1.5978  -49.1187    6.4846 C   0  0  0  0  0  0  0  0  0  0  0  0
   -0.2687  -50.4180    6.6086 C   0  0  0  0  0  0  0  0  0  0  0  0
   -1.2477  -51.4049    6.8705 C   0  0  0  0  0  0  0  0  0  0  0  0
   -2.5242  -51.2927    6.2695 C   0  0  0  0  0  0  0  0  0  0  0  0
   -2.8029  -50.2046    5.4177 C   0  0  0  0  0  0  0  0  0  0  0  0
   -1.8160  -49.2240    5.1702 C   0  0  0  0  0  0  0  0  0  0  0  0
   -0.5328  -49.3025    5.7596 C   0  0  0  0  0  0  0  0  0  0  0  0
    0.6485  -48.4818    5.7196 C   0  0  0  0  0  0  0  0  0  0  0  0
    0.7914  -47.1830    4.9813 C   0  0  0  0  0  0  0  0  0  0  0  0
    0.8856  -45.9530    5.9079 C   0  0  0  0  0  0  0  0  0  0  0  0
   -0.3043  -45.7921    6.8650 C   0  0  0  0  0  0  0  0  0  0  0  0
   -1.4475  -45.4189    6.1063 O   0  0  0  0  0  0  0  0  0  0  0  0
   -2.6442  -45.2630    6.7712 C   0  0  0  0  0  0  0  0  0  0  0  0
   -4.8922  -44.2571    6.6999 C   0  0  0  0  0  0  0  0  0  0  0  0
   -3.6327  -44.4906    6.1102 C   0  0  0  0  0  0  0  0  0  0  0  0
   -2.9379  -45.8450    8.0360 C   0  0  0  0  0  0  0  0  0  0  0  0
    1.0287  -50.2522    7.0341 N   0  0  0  0  0  0  0  0  0  0  0  0
   -6.2177  -45.7257    9.9160 C   0  0  0  0  0  0  0  0  0  0  0  0
   -4.7395  -46.1893    9.8810 C   0  0  0  0  0  0  0  0  0  0  0  0
   -4.2087  -45.6259    8.5912 C   0  0  0  0  0  0  0  0  0  0  0  0
   -5.1536  -44.8350    7.9542 C   0  0  0  0  0  0  0  0  0  0  0  0
   -6.4175  -44.7160    8.7624 C   0  0  0  0  0  0  0  0  0  0  0  0
    4.5142  -49.2902    7.6999 H   0  0  0  0  0  0  0  0  0  0  0  0
   -1.0233  -52.2359    7.5227 H   0  0  0  0  0  0  0  0  0  0  0  0
   -3.2818  -52.0378    6.4627 H   0  0  0  0  0  0  0  0  0  0  0  0
   -3.7740  -50.1201    4.9527 H   0  0  0  0  0  0  0  0  0  0  0  0
   -2.0468  -48.3960    4.5163 H   0  0  0  0  0  0  0  0  0  0  0  0
    1.7050  -47.2289    4.3704 H   0  0  0  0  0  0  0  0  0  0  0  0
   -0.0826  -47.0580    4.3251 H   0  0  0  0  0  0  0  0  0  0  0  0
    1.8021  -46.0439    6.5094 H   0  0  0  0  0  0  0  0  0  0  0  0
    0.9471  -45.0521    5.2798 H   0  0  0  0  0  0  0  0  0  0  0  0
   -0.4964  -46.7443    7.3812 H   0  0  0  0  0  0  0  0  0  0  0  0
   -0.0806  -45.0114    7.6069 H   0  0  0  0  0  0  0  0  0  0  0  0
   -5.6349  -43.6514    6.2019 H   0  0  0  0  0  0  0  0  0  0  0  0
   -3.4171  -44.0736    5.1376 H   0  0  0  0  0  0  0  0  0  0  0  0
   -2.2018  -46.4403    8.5558 H   0  0  0  0  0  0  0  0  0  0  0  0
    1.5001  -50.8725    7.6610 H   0  0  0  0  0  0  0  0  0  0  0  0
   -6.8851  -46.5892    9.7787 H   0  0  0  0  0  0  0  0  0  0  0  0
   -6.4367  -45.2426   10.8797 H   0  0  0  0  0  0  0  0  0  0  0  0
   -4.1837  -45.7871   10.7408 H   0  0  0  0  0  0  0  0  0  0  0  0
   -4.6745  -47.2874    9.8835 H   0  0  0  0  0  0  0  0  0  0  0  0
   -7.2960  -44.9828    8.1566 H   0  0  0  0  0  0  0  0  0  0  0  0
   -6.5377  -43.6946    9.1527 H   0  0  0  0  0  0  0  0  0  0  0  0
  1  2  2  0  0  0  0
  2  3  1  0  0  0  0
  2  4  1  0  0  0  0
  4 11  2  0  0  0  0
  4 20  1  0  0  0  0
  5  6  2  0  0  0  0
  5 10  1  0  0  0  0
  5 20  1  0  0  0  0
  6  7  1  0  0  0  0
  7  8  2  0  0  0  0
  8  9  1  0  0  0  0
  9 10  2  0  0  0  0
 10 11  1  0  0  0  0
 11 12  1  0  0  0  0
 12 13  1  0  0  0  0
 13 14  1  0  0  0  0
 14 15  1  0  0  0  0
 15 16  1  0  0  0  0
 16 18  2  0  0  0  0
 16 19  1  0  0  0  0
 17 18  1  0  0  0  0
 17 24  2  0  0  0  0
 19 23  2  0  0  0  0
 21 22  1  0  0  0  0
 21 25  1  0  0  0  0
 22 23  1  0  0  0  0
 23 24  1  0  0  0  0
 24 25  1  0  0  0  0
  3 26  1  0  0  0  0
  6 27  1  0  0  0  0
  7 28  1  0  0  0  0
  8 29  1  0  0  0  0
  9 30  1  0  0  0  0
 12 31  1  0  0  0  0
 12 32  1  0  0  0  0
 13 33  1  0  0  0  0
 13 34  1  0  0  0  0
 14 35  1  0  0  0  0
 14 36  1  0  0  0  0
 17 37  1  0  0  0  0
 18 38  1  0  0  0  0
 19 39  1  0  0  0  0
 20 40  1  0  0  0  0
 21 41  1  0  0  0  0
 21 42  1  0  0  0  0
 22 43  1  0  0  0  0
 22 44  1  0  0  0  0
 25 45  1  0  0  0  0
 25 46  1  0  0  0  0
M  END
> <r_user_dG.exp>
-7.60113429727595

$$$$
46
  -OEChem-05162309453D
 Structure written by MMmdl.
 46 49  0     1  0  0  0  0  0999 V2000
    3.5634  -47.8222    6.3169 O   0  0  0  0  0  0  0  0  0  0  0  0
    3.0096  -48.8325    6.8076 C   0  0  0  0  0  0  0  0  0  0  0  0
    3.6259  -49.6047    7.5794 O   0  0  0  0  0  0  0  0  0  0  0  0
    1.5978  -49.1187    6.4846 C   0  0  0  0  0  0  0  0  0  0  0  0
   -0.2687  -50.4180    6.6086 C   0  0  0  0  0  0  0  0  0  0  0  0
   -1.2477  -51.4049    6.8705 C   0  0  0  0  0  0  0  0  0  0  0  0
   -2.5242  -51.2927    6.2695 C   0  0  0  0  0  0  0  0  0  0  0  0
   -2.8029  -50.2046    5.4177 C   0  0  0  0  0  0  0  0  0  0  0  0
   -1.8160  -49.2240    5.1702 C   0  0  0  0  0  0  0  0  0  0  0  0
   -0.5328  -49.3025    5.7596 C   0  0  0  0  0  0  0  0  0  0  0  0
    0.6485  -48.4818    5.7196 C   0  0  3  0  0  0  0  0  0  0  0  0
    0.7914  -47.1830    4.9813 C   0  0  0  0  0  0  0  0  0  0  0  0
    0.8856  -45.9530    5.9079 C   0  0  0  0  0  0  0  0  0  0  0  0
   -0.3043  -45.7921    6.8650 C   0  0  0  0  0  0  0  0  0  0  0  0
   -1.4475  -45.4189    6.1063 O   0  0  0  0  0  0  0  0  0  0  0  0
   -2.6442  -45.2630    6.7712 C   0  0  0  0  0  0  0  0  0  0  0  0
   -4.8922  -44.2571    6.6999 C   0  0  0  0  0  0  0  0  0  0  0  0
   -3.6327  -44.4906    6.1102 C   0  0  0  0  0  0  0  0  0  0  0  0
   -2.9379  -45.8450    8.0360 C   0  0  0  0  0  0  0  0  0  0  0  0
    1.0287  -50.2522    7.0341 N   0  0  0  0  0  0  0  0  0  0  0  0
   -6.2177  -45.7257    9.9160 C   0  0  0  0  0  0  0  0  0  0  0  0
   -4.7395  -46.1893    9.8810 C   0  0  0  0  0  0  0  0  0  0  0  0
   -4.2087  -45.6259    8.5912 C   0  0  0  0  0  0  0  0  0  0  0  0
   -5.1536  -44.8350    7.9542 C   0  0  0  0  0  0  0  0  0  0  0  0
   -6.4175  -44.7160    8.7624 C   0  0  0  0  0  0  0  0  0  0  0  0
    4.5142  -49.2902    7.6999 H   0  0  0  0  0  0  0  0  0  0  0  0
   -1.0233  -52.2359    7.5227 H   0  0  0  0  0  0  0  0  0  0  0  0
   -3.2818  -52.0378    6.4627 H   0  0  0  0  0  0  0  0  0  0  0  0
   -3.7740  -50.1201    4.9527 H   0  0  0  0  0  0  0  0  0  0  0  0
   -2.0468  -48.3960    4.5163 H   0  0  0  0  0  0  0  0  0  0  0  0
    0.9981  -49.0268    4.8303 H   0  0  0  0  0  0  0  0  0  0  0  0
    1.7050  -47.2289    4.3704 H   0  0  0  0  0  0  0  0  0  0  0  0
   -0.0826  -47.0580    4.3251 H   0  0  0  0  0  0  0  0  0  0  0  0
    1.8021  -46.0439    6.5094 H   0  0  0  0  0  0  0  0  0  0  0  0
    0.9471  -45.0521    5.2798 H   0  0  0  0  0  0  0  0  0  0  0  0
   -0.4964  -46.7443    7.3812 H   0  0  0  0  0  0  0  0  0  0  0  0
   -0.0806  -45.0114    7.6069 H   0  0  0  0  0  0  0  0  0  0  0  0
   -5.6349  -43.6514    6.2019 H   0  0  0  0  0  0  0  0  0  0  0  0
   -3.4171  -44.0736    5.1376 H   0  0  0  0  0  0  0  0  0  0  0  0
   -2.2018  -46.4403    8.5558 H   0  0  0  0  0  0  0  0  0  0  0  0
   -6.8851  -46.5892    9.7787 H   0  0  0  0  0  0  0  0  0  0  0  0
   -6.4367  -45.2426   10.8797 H   0  0  0  0  0  0  0  0  0  0  0  0
   -4.1837  -45.7871   10.7408 H   0  0  0  0  0  0  0  0  0  0  0  0
   -4.6745  -47.2874    9.8835 H   0  0  0  0  0  0  0  0  0  0  0  0
   -7.2960  -44.9828    8.1566 H   0  0  0  0  0  0  0  0  0  0  0  0
   -6.5377  -43.6946    9.1527 H   0  0  0  0  0  0  0  0  0  0  0  0
  1  2  2  0  0  0  0
  2  3  1  0  0  0  0
  2  4  1  0  0  0  0
  4 11  1  0  0  0  0
  4 20  2  0  0  0  0
  5  6  2  0  0  0  0
  5 10  1  0  0  0  0
  5 20  1  0  0  0  0
  6  7  1  0  0  0  0
  7  8  2  0  0  0  0
  8  9  1  0  0  0  0
  9 10  2  0  0  0  0
 10 11  1  0  0  0  0
 11 12  1  0  0  0  0
 12 13  1  0  0  0  0
 13 14  1  0  0  0  0
 14 15  1  0  0  0  0
 15 16  1  0  0  0  0
 16 18  2  0  0  0  0
 16 19  1  0  0  0  0
 17 18  1  0  0  0  0
 17 24  2  0  0  0  0
 19 23  2  0  0  0  0
 21 22  1  0  0  0  0
 21 25  1  0  0  0  0
 22 23  1  0  0  0  0
 23 24  1  0  0  0  0
 24 25  1  0  0  0  0
  3 26  1  0  0  0  0
  6 27  1  0  0  0  0
  7 28  1  0  0  0  0
  8 29  1  0  0  0  0
  9 30  1  0  0  0  0
 11 31  1  0  0  0  0
 12 32  1  0  0  0  0
 12 33  1  0  0  0  0
 13 34  1  0  0  0  0
 13 35  1  0  0  0  0
 14 36  1  0  0  0  0
 14 37  1  0  0  0  0
 17 38  1  0  0  0  0
 18 39  1  0  0  0  0
 19 40  1  0  0  0  0
 21 41  1  0  0  0  0
 21 42  1  0  0  0  0
 22 43  1  0  0  0  0
 22 44  1  0  0  0  0
 25 45  1  0  0  0  0
 25 46  1  0  0  0  0
M  END
> <r_user_dG.exp>
-7.60113429727595

$$$$
46
  -OEChem-05162309453D
 Structure written by MMmdl.
 46 49  0     1  0  0  0  0  0999 V2000
    3.5634  -47.8222    6.3169 O   0  0  0  0  0  0  0  0  0  0  0  0
    3.0096  -48.8325    6.8076 C   0  0  0  0  0  0  0  0  0  0  0  0
    3.6259  -49.6047    7.5794 O   0  0  0  0  0  0  0  0  0  0  0  0
    1.5978  -49.1187    6.4846 C   0  0  3  0  0  0  0  0  0  0  0  0
   -0.2687  -50.4180    6.6086 C   0  0  0  0  0  0  0  0  0  0  0  0
   -1.2477  -51.4049    6.8705 C   0  0  0  0  0  0  0  0  0  0  0  0
   -2.5242  -51.2927    6.2695 C   0  0  0  0  0  0  0  0  0  0  0  0
   -2.8029  -50.2046    5.4177 C   0  0  0  0  0  0  0  0  0  0  0  0
   -1.8160  -49.2240    5.1702 C   0  0  0  0  0  0  0  0  0  0  0  0
   -0.5328  -49.3025    5.7596 C   0  0  0  0  0  0  0  0  0  0  0  0
    0.6485  -48.4818    5.7196 C   0  0  0  0  0  0  0  0  0  0  0  0
    0.7914  -47.1830    4.9813 C   0  0  0  0  0  0  0  0  0  0  0  0
    0.8856  -45.9530    5.9079 C   0  0  0  0  0  0  0  0  0  0  0  0
   -0.3043  -45.7921    6.8650 C   0  0  0  0  0  0  0  0  0  0  0  0
   -1.4475  -45.4189    6.1063 O   0  0  0  0  0  0  0  0  0  0  0  0
   -2.6442  -45.2630    6.7712 C   0  0  0  0  0  0  0  0  0  0  0  0
   -4.8922  -44.2571    6.6999 C   0  0  0  0  0  0  0  0  0  0  0  0
   -3.6327  -44.4906    6.1102 C   0  0  0  0  0  0  0  0  0  0  0  0
   -2.9379  -45.8450    8.0360 C   0  0  0  0  0  0  0  0  0  0  0  0
    1.0287  -50.2522    7.0341 N   0  0  0  0  0  0  0  0  0  0  0  0
   -6.2177  -45.7257    9.9160 C   0  0  0  0  0  0  0  0  0  0  0  0
   -4.7395  -46.1893    9.8810 C   0  0  0  0  0  0  0  0  0  0  0  0
   -4.2087  -45.6259    8.5912 C   0  0  0  0  0  0  0  0  0  0  0  0
   -5.1536  -44.8350    7.9542 C   0  0  0  0  0  0  0  0  0  0  0  0
   -6.4175  -44.7160    8.7624 C   0  0  0  0  0  0  0  0  0  0  0  0
    4.5142  -49.2902    7.6999 H   0  0  0  0  0  0  0  0  0  0  0  0
    1.9154  -49.7017    5.6075 H   0  0  0  0  0  0  0  0  0  0  0  0
   -1.0233  -52.2359    7.5227 H   0  0  0  0  0  0  0  0  0  0  0  0
   -3.2818  -52.0378    6.4627 H   0  0  0  0  0  0  0  0  0  0  0  0
   -3.7740  -50.1201    4.9527 H   0  0  0  0  0  0  0  0  0  0  0  0
   -2.0468  -48.3960    4.5163 H   0  0  0  0  0  0  0  0  0  0  0  0
    1.7050  -47.2289    4.3704 H   0  0  0  0  0  0  0  0  0  0  0  0
   -0.0826  -47.0580    4.3251 H   0  0  0  0  0  0  0  0  0  0  0  0
    1.8021  -46.0439    6.5094 H   0  0  0  0  0  0  0  0  0  0  0  0
    0.9471  -45.0521    5.2798 H   0  0  0  0  0  0  0  0  0  0  0  0
   -0.4964  -46.7443    7.3812 H   0  0  0  0  0  0  0  0  0  0  0  0
   -0.0806  -45.0114    7.6069 H   0  0  0  0  0  0  0  0  0  0  0  0
   -5.6349  -43.6514    6.2019 H   0  0  0  0  0  0  0  0  0  0  0  0
   -3.4171  -44.0736    5.1376 H   0  0  0  0  0  0  0  0  0  0  0  0
   -2.2018  -46.4403    8.5558 H   0  0  0  0  0  0  0  0  0  0  0  0
   -6.8851  -46.5892    9.7787 H   0  0  0  0  0  0  0  0  0  0  0  0
   -6.4367  -45.2426   10.8797 H   0  0  0  0  0  0  0  0  0  0  0  0
   -4.1837  -45.7871   10.7408 H   0  0  0  0  0  0  0  0  0  0  0  0
   -4.6745  -47.2874    9.8835 H   0  0  0  0  0  0  0  0  0  0  0  0
   -7.2960  -44.9828    8.1566 H   0  0  0  0  0  0  0  0  0  0  0  0
   -6.5377  -43.6946    9.1527 H   0  0  0  0  0  0  0  0  0  0  0  0
  1  2  2  0  0  0  0
  2  3  1  0  0  0  0
  2  4  1  0  0  0  0
  4 11  1  0  0  0  0
  4 20  1  0  0  0  0
  5  6  1  0  0  0  0
  5 10  1  0  0  0  0
  5 20  2  0  0  0  0
  6  7  2  0  0  0  0
  7  8  1  0  0  0  0
  8  9  2  0  0  0  0
  9 10  1  0  0  0  0
 10 11  2  0  0  0  0
 11 12  1  0  0  0  0
 12 13  1  0  0  0  0
 13 14  1  0  0  0  0
 14 15  1  0  0  0  0
 15 16  1  0  0  0  0
 16 18  2  0  0  0  0
 16 19  1  0  0  0  0
 17 18  1  0  0  0  0
 17 24  2  0  0  0  0
 19 23  2  0  0  0  0
 21 22  1  0  0  0  0
 21 25  1  0  0  0  0
 22 23  1  0  0  0  0
 23 24  1  0  0  0  0
 24 25  1  0  0  0  0
  3 26  1  0  0  0  0
  4 27  1  0  0  0  0
  6 28  1  0  0  0  0
  7 29  1  0  0  0  0
  8 30  1  0  0  0  0
  9 31  1  0  0  0  0
 12 32  1  0  0  0  0
 12 33  1  0  0  0  0
 13 34  1  0  0  0  0
 13 35  1  0  0  0  0
 14 36  1  0  0  0  0
 14 37  1  0  0  0  0
 17 38  1  0  0  0  0
 18 39  1  0  0  0  0
 19 40  1  0  0  0  0
 21 41  1  0  0  0  0
 21 42  1  0  0  0  0
 22 43  1  0  0  0  0
 22 44  1  0  0  0  0
 25 45  1  0  0  0  0
 25 46  1  0  0  0  0
M  END
> <r_user_dG.exp>
-7.60113429727595

$$$$
46
  -OEChem-05162309453D
 Structure written by MMmdl.
 46 49  0     1  0  0  0  0  0999 V2000
    3.5634  -47.8222    6.3169 O   0  0  0  0  0  0  0  0  0  0  0  0
    3.0096  -48.8325    6.8076 C   0  0  0  0  0  0  0  0  0  0  0  0
    3.6259  -49.6047    7.5794 O   0  0  0  0  0  0  0  0  0  0  0  0
    1.5978  -49.1187    6.4846 C   0  0  0  0  0  0  0  0  0  0  0  0
   -0.2687  -50.4180    6.6086 C   0  0  0  0  0  0  0  0  0  0  0  0
   -1.2477  -51.4049    6.8705 C   0  0  0  0  0  0  0  0  0  0  0  0
   -2.5242  -51.2927    6.2695 C   0  0  0  0  0  0  0  0  0  0  0  0
   -2.8029  -50.2046    5.4177 C   0  0  0  0  0  0  0  0  0  0  0  0
   -1.8160  -49.2240    5.1702 C   0  0  0  0  0  0  0  0  0  0  0  0
   -0.5328  -49.3025    5.7596 C   0  0  3  0  0  0  0  0  0  0  0  0
    0.6485  -48.4818    5.7196 C   0  0  0  0  0  0  0  0  0  0  0  0
    0.7914  -47.1830    4.9813 C   0  0  0  0  0  0  0  0  0  0  0  0
    0.8856  -45.9530    5.9079 C   0  0  0  0  0  0  0  0  0  0  0  0
   -0.3043  -45.7921    6.8650 C   0  0  0  0  0  0  0  0  0  0  0  0
   -1.4475  -45.4189    6.1063 O   0  0  0  0  0  0  0  0  0  0  0  0
   -2.6442  -45.2630    6.7712 C   0  0  0  0  0  0  0  0  0  0  0  0
   -4.8922  -44.2571    6.6999 C   0  0  0  0  0  0  0  0  0  0  0  0
   -3.6327  -44.4906    6.1102 C   0  0  0  0  0  0  0  0  0  0  0  0
   -2.9379  -45.8450    8.0360 C   0  0  0  0  0  0  0  0  0  0  0  0
    1.0287  -50.2522    7.0341 N   0  0  0  0  0  0  0  0  0  0  0  0
   -6.2177  -45.7257    9.9160 C   0  0  0  0  0  0  0  0  0  0  0  0
   -4.7395  -46.1893    9.8810 C   0  0  0  0  0  0  0  0  0  0  0  0
   -4.2087  -45.6259    8.5912 C   0  0  0  0  0  0  0  0  0  0  0  0
   -5.1536  -44.8350    7.9542 C   0  0  0  0  0  0  0  0  0  0  0  0
   -6.4175  -44.7160    8.7624 C   0  0  0  0  0  0  0  0  0  0  0  0
    4.5142  -49.2902    7.6999 H   0  0  0  0  0  0  0  0  0  0  0  0
   -1.0233  -52.2359    7.5227 H   0  0  0  0  0  0  0  0  0  0  0  0
   -3.2818  -52.0378    6.4627 H   0  0  0  0  0  0  0  0  0  0  0  0
   -3.7740  -50.1201    4.9527 H   0  0  0  0  0  0  0  0  0  0  0  0
   -2.0468  -48.3960    4.5163 H   0  0  0  0  0  0  0  0  0  0  0  0
   -0.1677  -49.8733    4.8931 H   0  0  0  0  0  0  0  0  0  0  0  0
    1.7050  -47.2289    4.3704 H   0  0  0  0  0  0  0  0  0  0  0  0
   -0.0826  -47.0580    4.3251 H   0  0  0  0  0  0  0  0  0  0  0  0
    1.8021  -46.0439    6.5094 H   0  0  0  0  0  0  0  0  0  0  0  0
    0.9471  -45.0521    5.2798 H   0  0  0  0  0  0  0  0  0  0  0  0
   -0.4964  -46.7443    7.3812 H   0  0  0  0  0  0  0  0  0  0  0  0
   -0.0806  -45.0114    7.6069 H   0  0  0  0  0  0  0  0  0  0  0  0
   -5.6349  -43.6514    6.2019 H   0  0  0  0  0  0  0  0  0  0  0  0
   -3.4171  -44.0736    5.1376 H   0  0  0  0  0  0  0  0  0  0  0  0
   -2.2018  -46.4403    8.5558 H   0  0  0  0  0  0  0  0  0  0  0  0
   -6.8851  -46.5892    9.7787 H   0  0  0  0  0  0  0  0  0  0  0  0
   -6.4367  -45.2426   10.8797 H   0  0  0  0  0  0  0  0  0  0  0  0
   -4.1837  -45.7871   10.7408 H   0  0  0  0  0  0  0  0  0  0  0  0
   -4.6745  -47.2874    9.8835 H   0  0  0  0  0  0  0  0  0  0  0  0
   -7.2960  -44.9828    8.1566 H   0  0  0  0  0  0  0  0  0  0  0  0
   -6.5377  -43.6946    9.1527 H   0  0  0  0  0  0  0  0  0  0  0  0
  1  2  2  0  0  0  0
  2  3  1  0  0  0  0
  2  4  1  0  0  0  0
  4 11  2  0  0  0  0
  4 20  1  0  0  0  0
  5  6  1  0  0  0  0
  5 10  1  0  0  0  0
  5 20  2  0  0  0  0
  6  7  2  0  0  0  0
  7  8  1  0  0  0  0
  8  9  2  0  0  0  0
  9 10  1  0  0  0  0
 10 11  1  0  0  0  0
 11 12  1  0  0  0  0
 12 13  1  0  0  0  0
 13 14  1  0  0  0  0
 14 15  1  0  0  0  0
 15 16  1  0  0  0  0
 16 18  2  0  0  0  0
 16 19  1  0  0  0  0
 17 18  1  0  0  0  0
 17 24  2  0  0  0  0
 19 23  2  0  0  0  0
 21 22  1  0  0  0  0
 21 25  1  0  0  0  0
 22 23  1  0  0  0  0
 23 24  1  0  0  0  0
 24 25  1  0  0  0  0
  3 26  1  0  0  0  0
  6 27  1  0  0  0  0
  7 28  1  0  0  0  0
  8 29  1  0  0  0  0
  9 30  1  0  0  0  0
 10 31  1  0  0  0  0
 12 32  1  0  0  0  0
 12 33  1  0  0  0  0
 13 34  1  0  0  0  0
 13 35  1  0  0  0  0
 14 36  1  0  0  0  0
 14 37  1  0  0  0  0
 17 38  1  0  0  0  0
 18 39  1  0  0  0  0
 19 40  1  0  0  0  0
 21 41  1  0  0  0  0
 21 42  1  0  0  0  0
 22 43  1  0  0  0  0
 22 44  1  0  0  0  0
 25 45  1  0  0  0  0
 25 46  1  0  0  0  0
M  END
> <r_user_dG.exp>
-7.60113429727595

$$$$
46
  -OEChem-05162309453D
 Structure written by MMmdl.
 46 49  0     1  0  0  0  0  0999 V2000
    3.5634  -47.8222    6.3169 O   0  0  0  0  0  0  0  0  0  0  0  0
    3.0096  -48.8325    6.8076 C   0  0  0  0  0  0  0  0  0  0  0  0
    3.6259  -49.6047    7.5794 O   0  0  0  0  0  0  0  0  0  0  0  0
    1.5978  -49.1187    6.4846 C   0  0  0  0  0  0  0  0  0  0  0  0
   -0.2687  -50.4180    6.6086 C   0  0  3  0  0  0  0  0  0  0  0  0
   -1.2477  -51.4049    6.8705 C   0  0  0  0  0  0  0  0  0  0  0  0
   -2.5242  -51.2927    6.2695 C   0  0  0  0  0  0  0  0  0  0  0  0
   -2.8029  -50.2046    5.4177 C   0  0  0  0  0  0  0  0  0  0  0  0
   -1.8160  -49.2240    5.1702 C   0  0  0  0  0  0  0  0  0  0  0  0
   -0.5328  -49.3025    5.7596 C   0  0  0  0  0  0  0  0  0  0  0  0
    0.6485  -48.4818    5.7196 C   0  0  0  0  0  0  0  0  0  0  0  0
    0.7914  -47.1830    4.9813 C   0  0  0  0  0  0  0  0  0  0  0  0
    0.8856  -45.9530    5.9079 C   0  0  0  0  0  0  0  0  0  0  0  0
   -0.3043  -45.7921    6.8650 C   0  0  0  0  0  0  0  0  0  0  0  0
   -1.4475  -45.4189    6.1063 O   0  0  0  0  0  0  0  0  0  0  0  0
   -2.6442  -45.2630    6.7712 C   0  0  0  0  0  0  0  0  0  0  0  0
   -4.8922  -44.2571    6.6999 C   0  0  0  0  0  0  0  0  0  0  0  0
   -3.6327  -44.4906    6.1102 C   0  0  0  0  0  0  0  0  0  0  0  0
   -2.9379  -45.8450    8.0360 C   0  0  0  0  0  0  0  0  0  0  0  0
    1.0287  -50.2522    7.0341 N   0  0  0  0  0  0  0  0  0  0  0  0
   -6.2177  -45.7257    9.9160 C   0  0  0  0  0  0  0  0  0  0  0  0
   -4.7395  -46.1893    9.8810 C   0  0  0  0  0  0  0  0  0  0  0  0
   -4.2087  -45.6259    8.5912 C   0  0  0  0  0  0  0  0  0  0  0  0
   -5.1536  -44.8350    7.9542 C   0  0  0  0  0  0  0  0  0  0  0  0
   -6.4175  -44.7160    8.7624 C   0  0  0  0  0  0  0  0  0  0  0  0
    4.5142  -49.2902    7.6999 H   0  0  0  0  0  0  0  0  0  0  0  0
    0.0863  -50.9962    5.7428 H   0  0  0  0  0  0  0  0  0  0  0  0
   -1.0233  -52.2359    7.5227 H   0  0  0  0  0  0  0  0  0  0  0  0
   -3.2818  -52.0378    6.4627 H   0  0  0  0  0  0  0  0  0  0  0  0
   -3.7740  -50.1201    4.9527 H   0  0  0  0  0  0  0  0  0  0  0  0
   -2.0468  -48.3960    4.5163 H   0  0  0  0  0  0  0  0  0  0  0  0
    1.7050  -47.2289    4.3704 H   0  0  0  0  0  0  0  0  0  0  0  0
   -0.0826  -47.0580    4.3251 H   0  0  0  0  0  0  0  0  0  0  0  0
    1.8021  -46.0439    6.5094 H   0  0  0  0  0  0  0  0  0  0  0  0
    0.9471  -45.0521    5.2798 H   0  0  0  0  0  0  0  0  0  0  0  0
   -0.4964  -46.7443    7.3812 H   0  0  0  0  0  0  0  0  0  0  0  0
   -0.0806  -45.0114    7.6069 H   0  0  0  0  0  0  0  0  0  0  0  0
   -5.6349  -43.6514    6.2019 H   0  0  0  0  0  0  0  0  0  0  0  0
   -3.4171  -44.0736    5.1376 H   0  0  0  0  0  0  0  0  0  0  0  0
   -2.2018  -46.4403    8.5558 H   0  0  0  0  0  0  0  0  0  0  0  0
   -6.8851  -46.5892    9.7787 H   0  0  0  0  0  0  0  0  0  0  0  0
   -6.4367  -45.2426   10.8797 H   0  0  0  0  0  0  0  0  0  0  0  0
   -4.1837  -45.7871   10.7408 H   0  0  0  0  0  0  0  0  0  0  0  0
   -4.6745  -47.2874    9.8835 H   0  0  0  0  0  0  0  0  0  0  0  0
   -7.2960  -44.9828    8.1566 H   0  0  0  0  0  0  0  0  0  0  0  0
   -6.5377  -43.6946    9.1527 H   0  0  0  0  0  0  0  0  0  0  0  0
  1  2  2  0  0  0  0
  2  3  1  0  0  0  0
  2  4  1  0  0  0  0
  4 11  1  0  0  0  0
  4 20  2  0  0  0  0
  5  6  1  0  0  0  0
  5 10  1  0  0  0  0
  5 20  1  0  0  0  0
  6  7  2  0  0  0  0
  7  8  1  0  0  0  0
  8  9  2  0  0  0  0
  9 10  1  0  0  0  0
 10 11  2  0  0  0  0
 11 12  1  0  0  0  0
 12 13  1  0  0  0  0
 13 14  1  0  0  0  0
 14 15  1  0  0  0  0
 15 16  1  0  0  0  0
 16 18  2  0  0  0  0
 16 19  1  0  0  0  0
 17 18  1  0  0  0  0
 17 24  2  0  0  0  0
 19 23  2  0  0  0  0
 21 22  1  0  0  0  0
 21 25  1  0  0  0  0
 22 23  1  0  0  0  0
 23 24  1  0  0  0  0
 24 25  1  0  0  0  0
  3 26  1  0  0  0  0
  5 27  1  0  0  0  0
  6 28  1  0  0  0  0
  7 29  1  0  0  0  0
  8 30  1  0  0  0  0
  9 31  1  0  0  0  0
 12 32  1  0  0  0  0
 12 33  1  0  0  0  0
 13 34  1  0  0  0  0
 13 35  1  0  0  0  0
 14 36  1  0  0  0  0
 14 37  1  0  0  0  0
 17 38  1  0  0  0  0
 18 39  1  0  0  0  0
 19 40  1  0  0  0  0
 21 41  1  0  0  0  0
 21 42  1  0  0  0  0
 22 43  1  0  0  0  0
 22 44  1  0  0  0  0
 25 45  1  0  0  0  0
 25 46  1  0  0  0  0
M  END
> <r_user_dG.exp>
-7.60113429727595

$$$$
46
  -OEChem-05162309453D
 Structure written by MMmdl.
 46 49  0     0  0  0  0  0  0999 V2000
    3.5634  -47.8222    6.3169 O   0  0  0  0  0  0  0  0  0  0  0  0
    3.0096  -48.8325    6.8076 C   0  0  0  0  0  0  0  0  0  0  0  0
    3.6259  -49.6047    7.5794 O   0  0  0  0  0  0  0  0  0  0  0  0
    1.5978  -49.1187    6.4846 C   0  0  0  0  0  0  0  0  0  0  0  0
   -0.2687  -50.4180    6.6086 C   0  0  0  0  0  0  0  0  0  0  0  0
   -1.2477  -51.4049    6.8705 C   0  0  0  0  0  0  0  0  0  0  0  0
   -2.5242  -51.2927    6.2695 C   0  0  0  0  0  0  0  0  0  0  0  0
   -2.8029  -50.2046    5.4177 C   0  0  0  0  0  0  0  0  0  0  0  0
   -1.8160  -49.2240    5.1702 C   0  0  0  0  0  0  0  0  0  0  0  0
   -0.5328  -49.3025    5.7596 C   0  0  0  0  0  0  0  0  0  0  0  0
    0.6485  -48.4818    5.7196 C   0  0  0  0  0  0  0  0  0  0  0  0
    0.7914  -47.1830    4.9813 C   0  0  0  0  0  0  0  0  0  0  0  0
    0.8856  -45.9530    5.9079 C   0  0  0  0  0  0  0  0  0  0  0  0
   -0.3043  -45.7921    6.8650 C   0  0  0  0  0  0  0  0  0  0  0  0
   -1.4475  -45.4189    6.1063 O   0  0  0  0  0  0  0  0  0  0  0  0
   -2.6442  -45.2630    6.7712 C   0  0  0  0  0  0  0  0  0  0  0  0
   -4.8922  -44.2571    6.6999 C   0  0  0  0  0  0  0  0  0  0  0  0
   -3.6327  -44.4906    6.1102 C   0  0  0  0  0  0  0  0  0  0  0  0
   -2.9379  -45.8450    8.0360 C   0  0  0  0  0  0  0  0  0  0  0  0
    1.0287  -50.2522    7.0341 N   0  0  0  0  0  0  0  0  0  0  0  0
   -6.2177  -45.7257    9.9160 C   0  0  0  0  0  0  0  0  0  0  0  0
   -4.7395  -46.1893    9.8810 C   0  0  0  0  0  0  0  0  0  0  0  0
   -4.2087  -45.6259    8.5912 C   0  0  0  0  0  0  0  0  0  0  0  0
   -5.1536  -44.8350    7.9542 C   0  0  0  0  0  0  0  0  0  0  0  0
   -6.4175  -44.7160    8.7624 C   0  0  0  0  0  0  0  0  0  0  0  0
    4.5142  -49.2902    7.6999 H   0  0  0  0  0  0  0  0  0  0  0  0
   -1.0233  -52.2359    7.5227 H   0  0  0  0  0  0  0  0  0  0  0  0
   -3.2818  -52.0378    6.4627 H   0  0  0  0  0  0  0  0  0  0  0  0
   -3.0786  -50.6296    4.4413 H   0  0  0  0  0  0  0  0  0  0  0  0
   -3.6693  -49.6803    5.8472 H   0  0  0  0  0  0  0  0  0  0  0  0
   -2.0468  -48.3960    4.5163 H   0  0  0  0  0  0  0  0  0  0  0  0
    1.7050  -47.2289    4.3704 H   0  0  0  0  0  0  0  0  0  0  0  0
   -0.0826  -47.0580    4.3251 H   0  0  0  0  0  0  0  0  0  0  0  0
    1.8021  -46.0439    6.5094 H   0  0  0  0  0  0  0  0  0  0  0  0
    0.9471  -45.0521    5.2798 H   0  0  0  0  0  0  0  0  0  0  0  0
   -0.4964  -46.7443    7.3812 H   0  0  0  0  0  0  0  0  0  0  0  0
   -0.0806  -45.0114    7.6069 H   0  0  0  0  0  0  0  0  0  0  0  0
   -5.6349  -43.6514    6.2019 H   0  0  0  0  0  0  0  0  0  0  0  0
   -3.4171  -44.0736    5.1376 H   0  0  0  0  0  0  0  0  0  0  0  0
   -2.2018  -46.4403    8.5558 H   0  0  0  0  0  0  0  0  0  0  0  0
   -6.8851  -46.5892    9.7787 H   0  0  0  0  0  0  0  0  0  0  0  0
   -6.4367  -45.2426   10.8797 H   0  0  0  0  0  0  0  0  0  0  0  0
   -4.1837  -45.7871   10.7408 H   0  0  0  0  0  0  0  0  0  0  0  0
   -4.6745  -47.2874    9.8835 H   0  0  0  0  0  0  0  0  0  0  0  0
   -7.2960  -44.9828    8.1566 H   0  0  0  0  0  0  0  0  0  0  0  0
   -6.5377  -43.6946    9.1527 H   0  0  0  0  0  0  0  0  0  0  0  0
  1  2  2  0  0  0  0
  2  3  1  0  0  0  0
  2  4  1  0  0  0  0
  4 11  2  0  0  0  0
  4 20  1  0  0  0  0
  5  6  1  0  0  0  0
  5 10  1  0  0  0  0
  5 20  2  0  0  0  0
  6  7  2  0  0  0  0
  7  8  1  0  0  0  0
  8  9  1  0  0  0  0
  9 10  2  0  0  0  0
 10 11  1  0  0  0  0
 11 12  1  0  0  0  0
 12 13  1  0  0  0  0
 13 14  1  0  0  0  0
 14 15  1  0  0  0  0
 15 16  1  0  0  0  0
 16 18  2  0  0  0  0
 16 19  1  0  0  0  0
 17 18  1  0  0  0  0
 17 24  2  0  0  0  0
 19 23  2  0  0  0  0
 21 22  1  0  0  0  0
 21 25  1  0  0  0  0
 22 23  1  0  0  0  0
 23 24  1  0  0  0  0
 24 25  1  0  0  0  0
  3 26  1  0  0  0  0
  6 27  1  0  0  0  0
  7 28  1  0  0  0  0
  8 29  1  0  0  0  0
  8 30  1  0  0  0  0
  9 31  1  0  0  0  0
 12 32  1  0  0  0  0
 12 33  1  0  0  0  0
 13 34  1  0  0  0  0
 13 35  1  0  0  0  0
 14 36  1  0  0  0  0
 14 37  1  0  0  0  0
 17 38  1  0  0  0  0
 18 39  1  0  0  0  0
 19 40  1  0  0  0  0
 21 41  1  0  0  0  0
 21 42  1  0  0  0  0
 22 43  1  0  0  0  0
 22 44  1  0  0  0  0
 25 45  1  0  0  0  0
 25 46  1  0  0  0  0
M  END
> <r_user_dG.exp>
-7.60113429727595

$$$$
46
  -OEChem-05162309453D
 Structure written by MMmdl.
 46 49  0     0  0  0  0  0  0999 V2000
    3.5634  -47.8222    6.3169 O   0  0  0  0  0  0  0  0  0  0  0  0
    3.0096  -48.8325    6.8076 C   0  0  0  0  0  0  0  0  0  0  0  0
    3.6259  -49.6047    7.5794 O   0  0  0  0  0  0  0  0  0  0  0  0
    1.5978  -49.1187    6.4846 C   0  0  0  0  0  0  0  0  0  0  0  0
   -0.2687  -50.4180    6.6086 C   0  0  0  0  0  0  0  0  0  0  0  0
   -1.2477  -51.4049    6.8705 C   0  0  0  0  0  0  0  0  0  0  0  0
   -2.5242  -51.2927    6.2695 C   0  0  0  0  0  0  0  0  0  0  0  0
   -2.8029  -50.2046    5.4177 C   0  0  0  0  0  0  0  0  0  0  0  0
   -1.8160  -49.2240    5.1702 C   0  0  0  0  0  0  0  0  0  0  0  0
   -0.5328  -49.3025    5.7596 C   0  0  0  0  0  0  0  0  0  0  0  0
    0.6485  -48.4818    5.7196 C   0  0  0  0  0  0  0  0  0  0  0  0
    0.7914  -47.1830    4.9813 C   0  0  0  0  0  0  0  0  0  0  0  0
    0.8856  -45.9530    5.9079 C   0  0  0  0  0  0  0  0  0  0  0  0
   -0.3043  -45.7921    6.8650 C   0  0  0  0  0  0  0  0  0  0  0  0
   -1.4475  -45.4189    6.1063 O   0  0  0  0  0  0  0  0  0  0  0  0
   -2.6442  -45.2630    6.7712 C   0  0  0  0  0  0  0  0  0  0  0  0
   -4.8922  -44.2571    6.6999 C   0  0  0  0  0  0  0  0  0  0  0  0
   -3.6327  -44.4906    6.1102 C   0  0  0  0  0  0  0  0  0  0  0  0
   -2.9379  -45.8450    8.0360 C   0  0  0  0  0  0  0  0  0  0  0  0
    1.0287  -50.2522    7.0341 N   0  0  0  0  0  0  0  0  0  0  0  0
   -6.2177  -45.7257    9.9160 C   0  0  0  0  0  0  0  0  0  0  0  0
   -4.7395  -46.1893    9.8810 C   0  0  0  0  0  0  0  0  0  0  0  0
   -4.2087  -45.6259    8.5912 C   0  0  0  0  0  0  0  0  0  0  0  0
   -5.1536  -44.8350    7.9542 C   0  0  0  0  0  0  0  0  0  0  0  0
   -6.4175  -44.7160    8.7624 C   0  0  0  0  0  0  0  0  0  0  0  0
    4.5142  -49.2902    7.6999 H   0  0  0  0  0  0  0  0  0  0  0  0
   -1.0233  -52.2359    7.5227 H   0  0  0  0  0  0  0  0  0  0  0  0
   -2.6802  -52.2077    5.6792 H   0  0  0  0  0  0  0  0  0  0  0  0
   -3.2592  -51.2540    7.0870 H   0  0  0  0  0  0  0  0  0  0  0  0
   -3.7740  -50.1201    4.9527 H   0  0  0  0  0  0  0  0  0  0  0  0
   -2.0468  -48.3960    4.5163 H   0  0  0  0  0  0  0  0  0  0  0  0
    1.7050  -47.2289    4.3704 H   0  0  0  0  0  0  0  0  0  0  0  0
   -0.0826  -47.0580    4.3251 H   0  0  0  0  0  0  0  0  0  0  0  0
    1.8021  -46.0439    6.5094 H   0  0  0  0  0  0  0  0  0  0  0  0
    0.9471  -45.0521    5.2798 H   0  0  0  0  0  0  0  0  0  0  0  0
   -0.4964  -46.7443    7.3812 H   0  0  0  0  0  0  0  0  0  0  0  0
   -0.0806  -45.0114    7.6069 H   0  0  0  0  0  0  0  0  0  0  0  0
   -5.6349  -43.6514    6.2019 H   0  0  0  0  0  0  0  0  0  0  0  0
   -3.4171  -44.0736    5.1376 H   0  0  0  0  0  0  0  0  0  0  0  0
   -2.2018  -46.4403    8.5558 H   0  0  0  0  0  0  0  0  0  0  0  0
   -6.8851  -46.5892    9.7787 H   0  0  0  0  0  0  0  0  0  0  0  0
   -6.4367  -45.2426   10.8797 H   0  0  0  0  0  0  0  0  0  0  0  0
   -4.1837  -45.7871   10.7408 H   0  0  0  0  0  0  0  0  0  0  0  0
   -4.6745  -47.2874    9.8835 H   0  0  0  0  0  0  0  0  0  0  0  0
   -7.2960  -44.9828    8.1566 H   0  0  0  0  0  0  0  0  0  0  0  0
   -6.5377  -43.6946    9.1527 H   0  0  0  0  0  0  0  0  0  0  0  0
  1  2  2  0  0  0  0
  2  3  1  0  0  0  0
  2  4  1  0  0  0  0
  4 11  1  0  0  0  0
  4 20  2  0  0  0  0
  5  6  2  0  0  0  0
  5 10  1  0  0  0  0
  5 20  1  0  0  0  0
  6  7  1  0  0  0  0
  7  8  1  0  0  0  0
  8  9  2  0  0  0  0
  9 10  1  0  0  0  0
 10 11  2  0  0  0  0
 11 12  1  0  0  0  0
 12 13  1  0  0  0  0
 13 14  1  0  0  0  0
 14 15  1  0  0  0  0
 15 16  1  0  0  0  0
 16 18  2  0  0  0  0
 16 19  1  0  0  0  0
 17 18  1  0  0  0  0
 17 24  2  0  0  0  0
 19 23  2  0  0  0  0
 21 22  1  0  0  0  0
 21 25  1  0  0  0  0
 22 23  1  0  0  0  0
 23 24  1  0  0  0  0
 24 25  1  0  0  0  0
  3 26  1  0  0  0  0
  6 27  1  0  0  0  0
  7 28  1  0  0  0  0
  7 29  1  0  0  0  0
  8 30  1  0  0  0  0
  9 31  1  0  0  0  0
 12 32  1  0  0  0  0
 12 33  1  0  0  0  0
 13 34  1  0  0  0  0
 13 35  1  0  0  0  0
 14 36  1  0  0  0  0
 14 37  1  0  0  0  0
 17 38  1  0  0  0  0
 18 39  1  0  0  0  0
 19 40  1  0  0  0  0
 21 41  1  0  0  0  0
 21 42  1  0  0  0  0
 22 43  1  0  0  0  0
 22 44  1  0  0  0  0
 25 45  1  0  0  0  0
 25 46  1  0  0  0  0
M  END
> <r_user_dG.exp>
-7.60113429727595

$$$$
46
  -OEChem-05162309453D
 Structure written by MMmdl.
 46 49  0     0  0  0  0  0  0999 V2000
    3.5634  -47.8222    6.3169 O   0  0  0  0  0  0  0  0  0  0  0  0
    3.0096  -48.8325    6.8076 C   0  0  0  0  0  0  0  0  0  0  0  0
    3.6259  -49.6047    7.5794 O   0  0  0  0  0  0  0  0  0  0  0  0
    1.5978  -49.1187    6.4846 C   0  0  0  0  0  0  0  0  0  0  0  0
   -0.2687  -50.4180    6.6086 C   0  0  0  0  0  0  0  0  0  0  0  0
   -1.2477  -51.4049    6.8705 C   0  0  0  0  0  0  0  0  0  0  0  0
   -2.5242  -51.2927    6.2695 C   0  0  0  0  0  0  0  0  0  0  0  0
   -2.8029  -50.2046    5.4177 C   0  0  0  0  0  0  0  0  0  0  0  0
   -1.8160  -49.2240    5.1702 C   0  0  0  0  0  0  0  0  0  0  0  0
   -0.5328  -49.3025    5.7596 C   0  0  0  0  0  0  0  0  0  0  0  0
    0.6485  -48.4818    5.7196 C   0  0  0  0  0  0  0  0  0  0  0  0
    0.7914  -47.1830    4.9813 C   0  0  0  0  0  0  0  0  0  0  0  0
    0.8856  -45.9530    5.9079 C   0  0  0  0  0  0  0  0  0  0  0  0
   -0.3043  -45.7921    6.8650 C   0  0  0  0  0  0  0  0  0  0  0  0
   -1.4475  -45.4189    6.1063 O   0  0  0  0  0  0  0  0  0  0  0  0
   -2.6442  -45.2630    6.7712 C   0  0  0  0  0  0  0  0  0  0  0  0
   -4.8922  -44.2571    6.6999 C   0  0  0  0  0  0  0  0  0  0  0  0
   -3.6327  -44.4906    6.1102 C   0  0  0  0  0  0  0  0  0  0  0  0
   -2.9379  -45.8450    8.0360 C   0  0  0  0  0  0  0  0  0  0  0  0
    1.0287  -50.2522    7.0341 N   0  0  0  0  0  0  0  0  0  0  0  0
   -6.2177  -45.7257    9.9160 C   0  0  0  0  0  0  0  0  0  0  0  0
   -4.7395  -46.1893    9.8810 C   0  0  0  0  0  0  0  0  0  0  0  0
   -4.2087  -45.6259    8.5912 C   0  0  0  0  0  0  0  0  0  0  0  0
   -5.1536  -44.8350    7.9542 C   0  0  0  0  0  0  0  0  0  0  0  0
   -6.4175  -44.7160    8.7624 C   0  0  0  0  0  0  0  0  0  0  0  0
    4.5142  -49.2902    7.6999 H   0  0  0  0  0  0  0  0  0  0  0  0
   -0.8256  -52.3685    6.5491 H   0  0  0  0  0  0  0  0  0  0  0  0
   -1.4059  -51.4187    7.9590 H   0  0  0  0  0  0  0  0  0  0  0  0
   -3.2818  -52.0378    6.4627 H   0  0  0  0  0  0  0  0  0  0  0  0
   -3.7740  -50.1201    4.9527 H   0  0  0  0  0  0  0  0  0  0  0  0
   -2.0468  -48.3960    4.5163 H   0  0  0  0  0  0  0  0  0  0  0  0
    1.7050  -47.2289    4.3704 H   0  0  0  0  0  0  0  0  0  0  0  0
   -0.0826  -47.0580    4.3251 H   0  0  0  0  0  0  0  0  0  0  0  0
    1.8021  -46.0439    6.5094 H   0  0  0  0  0  0  0  0  0  0  0  0
    0.9471  -45.0521    5.2798 H   0  0  0  0  0  0  0  0  0  0  0  0
   -0.4964  -46.7443    7.3812 H   0  0  0  0  0  0  0  0  0  0  0  0
   -0.0806  -45.0114    7.6069 H   0  0  0  0  0  0  0  0  0  0  0  0
   -5.6349  -43.6514    6.2019 H   0  0  0  0  0  0  0  0  0  0  0  0
   -3.4171  -44.0736    5.1376 H   0  0  0  0  0  0  0  0  0  0  0  0
   -2.2018  -46.4403    8.5558 H   0  0  0  0  0  0  0  0  0  0  0  0
   -6.8851  -46.5892    9.7787 H   0  0  0  0  0  0  0  0  0  0  0  0
   -6.4367  -45.2426   10.8797 H   0  0  0  0  0  0  0  0  0  0  0  0
   -4.1837  -45.7871   10.7408 H   0  0  0  0  0  0  0  0  0  0  0  0
   -4.6745  -47.2874    9.8835 H   0  0  0  0  0  0  0  0  0  0  0  0
   -7.2960  -44.9828    8.1566 H   0  0  0  0  0  0  0  0  0  0  0  0
   -6.5377  -43.6946    9.1527 H   0  0  0  0  0  0  0  0  0  0  0  0
  1  2  2  0  0  0  0
  2  3  1  0  0  0  0
  2  4  1  0  0  0  0
  4 11  2  0  0  0  0
  4 20  1  0  0  0  0
  5  6  1  0  0  0  0
  5 10  1  0  0  0  0
  5 20  2  0  0  0  0
  6  7  1  0  0  0  0
  7  8  2  0  0  0  0
  8  9  1  0  0  0  0
  9 10  2  0  0  0  0
 10 11  1  0  0  0  0
 11 12  1  0  0  0  0
 12 13  1  0  0  0  0
 13 14  1  0  0  0  0
 14 15  1  0  0  0  0
 15 16  1  0  0  0  0
 16 18  2  0  0  0  0
 16 19  1  0  0  0  0
 17 18  1  0  0  0  0
 17 24  2  0  0  0  0
 19 23  2  0  0  0  0
 21 22  1  0  0  0  0
 21 25  1  0  0  0  0
 22 23  1  0  0  0  0
 23 24  1  0  0  0  0
 24 25  1  0  0  0  0
  3 26  1  0  0  0  0
  6 27  1  0  0  0  0
  6 28  1  0  0  0  0
  7 29  1  0  0  0  0
  8 30  1  0  0  0  0
  9 31  1  0  0  0  0
 12 32  1  0  0  0  0
 12 33  1  0  0  0  0
 13 34  1  0  0  0  0
 13 35  1  0  0  0  0
 14 36  1  0  0  0  0
 14 37  1  0  0  0  0
 17 38  1  0  0  0  0
 18 39  1  0  0  0  0
 19 40  1  0  0  0  0
 21 41  1  0  0  0  0
 21 42  1  0  0  0  0
 22 43  1  0  0  0  0
 22 44  1  0  0  0  0
 25 45  1  0  0  0  0
 25 46  1  0  0  0  0
M  END
> <r_user_dG.exp>
-7.60113429727595

$$$$
46
  -OEChem-05162309453D
 Structure written by MMmdl.
 46 49  0     0  0  0  0  0  0999 V2000
    3.5634  -47.8222    6.3169 O   0  0  0  0  0  0  0  0  0  0  0  0
    3.0096  -48.8325    6.8076 C   0  0  0  0  0  0  0  0  0  0  0  0
    3.6259  -49.6047    7.5794 O   0  0  0  0  0  0  0  0  0  0  0  0
    1.5978  -49.1187    6.4846 C   0  0  0  0  0  0  0  0  0  0  0  0
   -0.2687  -50.4180    6.6086 C   0  0  0  0  0  0  0  0  0  0  0  0
   -1.2477  -51.4049    6.8705 C   0  0  0  0  0  0  0  0  0  0  0  0
   -2.5242  -51.2927    6.2695 C   0  0  0  0  0  0  0  0  0  0  0  0
   -2.8029  -50.2046    5.4177 C   0  0  0  0  0  0  0  0  0  0  0  0
   -1.8160  -49.2240    5.1702 C   0  0  0  0  0  0  0  0  0  0  0  0
   -0.5328  -49.3025    5.7596 C   0  0  0  0  0  0  0  0  0  0  0  0
    0.6485  -48.4818    5.7196 C   0  0  0  0  0  0  0  0  0  0  0  0
    0.7914  -47.1830    4.9813 C   0  0  0  0  0  0  0  0  0  0  0  0
    0.8856  -45.9530    5.9079 C   0  0  0  0  0  0  0  0  0  0  0  0
   -0.3043  -45.7921    6.8650 C   0  0  0  0  0  0  0  0  0  0  0  0
   -1.4475  -45.4189    6.1063 O   0  0  0  0  0  0  0  0  0  0  0  0
   -2.6442  -45.2630    6.7712 C   0  0  0  0  0  0  0  0  0  0  0  0
   -4.8922  -44.2571    6.6999 C   0  0  0  0  0  0  0  0  0  0  0  0
   -3.6327  -44.4906    6.1102 C   0  0  0  0  0  0  0  0  0  0  0  0
   -2.9379  -45.8450    8.0360 C   0  0  0  0  0  0  0  0  0  0  0  0
    1.0287  -50.2522    7.0341 N   0  0  0  0  0  0  0  0  0  0  0  0
   -6.2177  -45.7257    9.9160 C   0  0  0  0  0  0  0  0  0  0  0  0
   -4.7395  -46.1893    9.8810 C   0  0  0  0  0  0  0  0  0  0  0  0
   -4.2087  -45.6259    8.5912 C   0  0  0  0  0  0  0  0  0  0  0  0
   -5.1536  -44.8350    7.9542 C   0  0  0  0  0  0  0  0  0  0  0  0
   -6.4175  -44.7160    8.7624 C   0  0  0  0  0  0  0  0  0  0  0  0
    4.5142  -49.2902    7.6999 H   0  0  0  0  0  0  0  0  0  0  0  0
   -1.0233  -52.2359    7.5227 H   0  0  0  0  0  0  0  0  0  0  0  0
   -3.2818  -52.0378    6.4627 H   0  0  0  0  0  0  0  0  0  0  0  0
   -3.7740  -50.1201    4.9527 H   0  0  0  0  0  0  0  0  0  0  0  0
   -1.6574  -49.2110    4.0818 H   0  0  0  0  0  0  0  0  0  0  0  0
   -2.2461  -48.2632    5.4896 H   0  0  0  0  0  0  0  0  0  0  0  0
    1.7050  -47.2289    4.3704 H   0  0  0  0  0  0  0  0  0  0  0  0
   -0.0826  -47.0580    4.3251 H   0  0  0  0  0  0  0  0  0  0  0  0
    1.8021  -46.0439    6.5094 H   0  0  0  0  0  0  0  0  0  0  0  0
    0.9471  -45.0521    5.2798 H   0  0  0  0  0  0  0  0  0  0  0  0
   -0.4964  -46.7443    7.3812 H   0  0  0  0  0  0  0  0  0  0  0  0
   -0.0806  -45.0114    7.6069 H   0  0  0  0  0  0  0  0  0  0  0  0
   -5.6349  -43.6514    6.2019 H   0  0  0  0  0  0  0  0  0  0  0  0
   -3.4171  -44.0736    5.1376 H   0  0  0  0  0  0  0  0  0  0  0  0
   -2.2018  -46.4403    8.5558 H   0  0  0  0  0  0  0  0  0  0  0  0
   -6.8851  -46.5892    9.7787 H   0  0  0  0  0  0  0  0  0  0  0  0
   -6.4367  -45.2426   10.8797 H   0  0  0  0  0  0  0  0  0  0  0  0
   -4.1837  -45.7871   10.7408 H   0  0  0  0  0  0  0  0  0  0  0  0
   -4.6745  -47.2874    9.8835 H   0  0  0  0  0  0  0  0  0  0  0  0
   -7.2960  -44.9828    8.1566 H   0  0  0  0  0  0  0  0  0  0  0  0
   -6.5377  -43.6946    9.1527 H   0  0  0  0  0  0  0  0  0  0  0  0
  1  2  2  0  0  0  0
  2  3  1  0  0  0  0
  2  4  1  0  0  0  0
  4 11  1  0  0  0  0
  4 20  2  0  0  0  0
  5  6  2  0  0  0  0
  5 10  1  0  0  0  0
  5 20  1  0  0  0  0
  6  7  1  0  0  0  0
  7  8  2  0  0  0  0
  8  9  1  0  0  0  0
  9 10  1  0  0  0  0
 10 11  2  0  0  0  0
 11 12  1  0  0  0  0
 12 13  1  0  0  0  0
 13 14  1  0  0  0  0
 14 15  1  0  0  0  0
 15 16  1  0  0  0  0
 16 18  2  0  0  0  0
 16 19  1  0  0  0  0
 17 18  1  0  0  0  0
 17 24  2  0  0  0  0
 19 23  2  0  0  0  0
 21 22  1  0  0  0  0
 21 25  1  0  0  0  0
 22 23  1  0  0  0  0
 23 24  1  0  0  0  0
 24 25  1  0  0  0  0
  3 26  1  0  0  0  0
  6 27  1  0  0  0  0
  7 28  1  0  0  0  0
  8 29  1  0  0  0  0
  9 30  1  0  0  0  0
  9 31  1  0  0  0  0
 12 32  1  0  0  0  0
 12 33  1  0  0  0  0
 13 34  1  0  0  0  0
 13 35  1  0  0  0  0
 14 36  1  0  0  0  0
 14 37  1  0  0  0  0
 17 38  1  0  0  0  0
 18 39  1  0  0  0  0
 19 40  1  0  0  0  0
 21 41  1  0  0  0  0
 21 42  1  0  0  0  0
 22 43  1  0  0  0  0
 22 44  1  0  0  0  0
 25 45  1  0  0  0  0
 25 46  1  0  0  0  0
M  END
> <r_user_dG.exp>
-7.60113429727595

$$$$
46
  -OEChem-05162309453D
 Structure written by MMmdl.
 46 49  0     0  0  0  0  0  0999 V2000
    3.5634  -47.8222    6.3169 O   0  0  0  0  0  0  0  0  0  0  0  0
    3.0096  -48.8325    6.8076 C   0  0  0  0  0  0  0  0  0  0  0  0
    3.6259  -49.6047    7.5794 O   0  0  0  0  0  0  0  0  0  0  0  0
    1.5978  -49.1187    6.4846 C   0  0  0  0  0  0  0  0  0  0  0  0
   -0.2687  -50.4180    6.6086 C   0  0  0  0  0  0  0  0  0  0  0  0
   -1.2477  -51.4049    6.8705 C   0  0  0  0  0  0  0  0  0  0  0  0
   -2.5242  -51.2927    6.2695 C   0  0  0  0  0  0  0  0  0  0  0  0
   -2.8029  -50.2046    5.4177 C   0  0  0  0  0  0  0  0  0  0  0  0
   -1.8160  -49.2240    5.1702 C   0  0  0  0  0  0  0  0  0  0  0  0
   -0.5328  -49.3025    5.7596 C   0  0  0  0  0  0  0  0  0  0  0  0
    0.6485  -48.4818    5.7196 C   0  0  0  0  0  0  0  0  0  0  0  0
    0.7914  -47.1830    4.9813 C   0  0  0  0  0  0  0  0  0  0  0  0
    0.8856  -45.9530    5.9079 C   0  0  0  0  0  0  0  0  0  0  0  0
   -0.3043  -45.7921    6.8650 C   0  0  0  0  0  0  0  0  0  0  0  0
   -1.4475  -45.4189    6.1063 O   0  0  0  0  0  0  0  0  0  0  0  0
   -2.6442  -45.2630    6.7712 C   0  0  0  0  0  0  0  0  0  0  0  0
   -4.8922  -44.2571    6.6999 C   0  0  0  0  0  0  0  0  0  0  0  0
   -3.6327  -44.4906    6.1102 C   0  0  0  0  0  0  0  0  0  0  0  0
   -2.9379  -45.8450    8.0360 C   0  0  0  0  0  0  0  0  0  0  0  0
    1.0287  -50.2522    7.0341 N   0  0  0  0  0  0  0  0  0  0  0  0
   -6.2177  -45.7257    9.9160 C   0  0  0  0  0  0  0  0  0  0  0  0
   -4.7395  -46.1893    9.8810 C   0  0  0  0  0  0  0  0  0  0  0  0
   -4.2087  -45.6259    8.5912 C   0  0  0  0  0  0  0  0  0  0  0  0
   -5.1536  -44.8350    7.9542 C   0  0  0  0  0  0  0  0  0  0  0  0
   -6.4175  -44.7160    8.7624 C   0  0  0  0  0  0  0  0  0  0  0  0
    2.9464  -47.3610    5.7609 H   0  0  0  0  0  0  0  0  0  0  0  0
    3.0494  -50.3098    7.8494 H   0  0  0  0  0  0  0  0  0  0  0  0
   -1.0233  -52.2359    7.5227 H   0  0  0  0  0  0  0  0  0  0  0  0
   -3.2818  -52.0378    6.4627 H   0  0  0  0  0  0  0  0  0  0  0  0
   -3.7740  -50.1201    4.9527 H   0  0  0  0  0  0  0  0  0  0  0  0
   -2.0468  -48.3960    4.5163 H   0  0  0  0  0  0  0  0  0  0  0  0
    1.7050  -47.2289    4.3704 H   0  0  0  0  0  0  0  0  0  0  0  0
   -0.0826  -47.0580    4.3251 H   0  0  0  0  0  0  0  0  0  0  0  0
    1.8021  -46.0439    6.5094 H   0  0  0  0  0  0  0  0  0  0  0  0
    0.9471  -45.0521    5.2798 H   0  0  0  0  0  0  0  0  0  0  0  0
   -0.4964  -46.7443    7.3812 H   0  0  0  0  0  0  0  0  0  0  0  0
   -0.0806  -45.0114    7.6069 H   0  0  0  0  0  0  0  0  0  0  0  0
   -5.6349  -43.6514    6.2019 H   0  0  0  0  0  0  0  0  0  0  0  0
   -3.4171  -44.0736    5.1376 H   0  0  0  0  0  0  0  0  0  0  0  0
   -2.2018  -46.4403    8.5558 H   0  0  0  0  0  0  0  0  0  0  0  0
   -6.8851  -46.5892    9.7787 H   0  0  0  0  0  0  0  0  0  0  0  0
   -6.4367  -45.2426   10.8797 H   0  0  0  0  0  0  0  0  0  0  0  0
   -4.1837  -45.7871   10.7408 H   0  0  0  0  0  0  0  0  0  0  0  0
   -4.6745  -47.2874    9.8835 H   0  0  0  0  0  0  0  0  0  0  0  0
   -7.2960  -44.9828    8.1566 H   0  0  0  0  0  0  0  0  0  0  0  0
   -6.5377  -43.6946    9.1527 H   0  0  0  0  0  0  0  0  0  0  0  0
  1  2  1  0  0  0  0
  2  3  1  0  0  0  0
  2  4  2  0  0  0  0
  4 11  1  0  0  0  0
  4 20  1  0  0  0  0
  5  6  1  0  0  0  0
  5 10  1  0  0  0  0
  5 20  2  0  0  0  0
  6  7  2  0  0  0  0
  7  8  1  0  0  0  0
  8  9  2  0  0  0  0
  9 10  1  0  0  0  0
 10 11  2  0  0  0  0
 11 12  1  0  0  0  0
 12 13  1  0  0  0  0
 13 14  1  0  0  0  0
 14 15  1  0  0  0  0
 15 16  1  0  0  0  0
 16 18  2  0  0  0  0
 16 19  1  0  0  0  0
 17 18  1  0  0  0  0
 17 24  2  0  0  0  0
 19 23  2  0  0  0  0
 21 22  1  0  0  0  0
 21 25  1  0  0  0  0
 22 23  1  0  0  0  0
 23 24  1  0  0  0  0
 24 25  1  0  0  0  0
  1 26  1  0  0  0  0
  3 27  1  0  0  0  0
  6 28  1  0  0  0  0
  7 29  1  0  0  0  0
  8 30  1  0  0  0  0
  9 31  1  0  0  0  0
 12 32  1  0  0  0  0
 12 33  1  0  0  0  0
 13 34  1  0  0  0  0
 13 35  1  0  0  0  0
 14 36  1  0  0  0  0
 14 37  1  0  0  0  0
 17 38  1  0  0  0  0
 18 39  1  0  0  0  0
 19 40  1  0  0  0  0
 21 41  1  0  0  0  0
 21 42  1  0  0  0  0
 22 43  1  0  0  0  0
 22 44  1  0  0  0  0
 25 45  1  0  0  0  0
 25 46  1  0  0  0  0
M  END
> <r_user_dG.exp>
-7.60113429727595

$$$$
