33
  -OEChem-05162309453D
 Structure written by MMmdl.
 39 41  0     0  0  0  0  0  0999 V2000
    3.6157  -50.1315    7.3800 O   0  0  0  0  0  0  0  0  0  0  0  0
    3.0170  -49.1138    6.9676 C   0  0  0  0  0  0  0  0  0  0  0  0
    3.5644  -47.9851    6.9019 O   0  0  0  0  0  0  0  0  0  0  0  0
    1.6043  -49.2459    6.5419 C   0  0  0  0  0  0  0  0  0  0  0  0
   -0.3113  -50.4722    6.2833 C   0  0  0  0  0  0  0  0  0  0  0  0
   -1.3178  -51.4535    6.2650 C   0  0  0  0  0  0  0  0  0  0  0  0
   -2.5967  -51.1141    5.7749 C   0  0  0  0  0  0  0  0  0  0  0  0
   -2.8523  -49.8053    5.3101 C   0  0  0  0  0  0  0  0  0  0  0  0
   -1.8339  -48.8336    5.3312 C   0  0  0  0  0  0  0  0  0  0  0  0
   -0.5363  -49.1416    5.8192 C   0  0  0  0  0  0  0  0  0  0  0  0
    0.6789  -48.3880    5.9873 C   0  0  0  0  0  0  0  0  0  0  0  0
    0.8824  -46.9418    5.6154 C   0  0  0  0  0  0  0  0  0  0  0  0
    0.6891  -45.9795    6.8002 C   0  0  0  0  0  0  0  0  0  0  0  0
   -0.7339  -45.9723    7.3808 C   0  0  0  0  0  0  0  0  0  0  0  0
   -1.6585  -45.6662    6.3443 O   0  0  0  0  0  0  0  0  0  0  0  0
   -2.9587  -45.3534    6.6806 C   0  0  0  0  0  0  0  0  0  0  0  0
   -3.4415  -45.2780    8.0126 C   0  0  0  0  0  0  0  0  0  0  0  0
   -4.7727  -44.8870    8.2638 C   0  0  0  0  0  0  0  0  0  0  0  0
   -5.6345  -44.5827    7.1953 C   0  0  0  0  0  0  0  0  0  0  0  0
   -5.1783  -44.6966    5.8690 C   0  0  0  0  0  0  0  0  0  0  0  0
   -3.8496  -45.0887    5.6179 C   0  0  0  0  0  0  0  0  0  0  0  0
    1.0091  -50.4890    6.6902 N   0  0  0  0  0  0  0  0  0  0  0  0
   -7.2450  -44.0498    7.5067 Cl  0  0  0  0  0  0  0  0  0  0  0  0
    4.4621  -48.0498    7.2061 H   0  0  0  0  0  0  0  0  0  0  0  0
   -1.1151  -52.4528    6.6210 H   0  0  0  0  0  0  0  0  0  0  0  0
   -3.3811  -51.8562    5.7552 H   0  0  0  0  0  0  0  0  0  0  0  0
   -3.8328  -49.5489    4.9370 H   0  0  0  0  0  0  0  0  0  0  0  0
   -2.0429  -47.8374    4.9703 H   0  0  0  0  0  0  0  0  0  0  0  0
    1.9053  -46.8204    5.2295 H   0  0  0  0  0  0  0  0  0  0  0  0
    0.1600  -46.6779    4.8289 H   0  0  0  0  0  0  0  0  0  0  0  0
    1.3862  -46.2719    7.5993 H   0  0  0  0  0  0  0  0  0  0  0  0
    0.9279  -44.9611    6.4599 H   0  0  0  0  0  0  0  0  0  0  0  0
   -0.9655  -46.9625    7.8003 H   0  0  0  0  0  0  0  0  0  0  0  0
   -0.8044  -45.2127    8.1733 H   0  0  0  0  0  0  0  0  0  0  0  0
   -2.7872  -45.5209    8.8368 H   0  0  0  0  0  0  0  0  0  0  0  0
   -5.1316  -44.8210    9.2803 H   0  0  0  0  0  0  0  0  0  0  0  0
   -5.8451  -44.4840    5.0465 H   0  0  0  0  0  0  0  0  0  0  0  0
   -3.5072  -45.1883    4.5985 H   0  0  0  0  0  0  0  0  0  0  0  0
    1.4771  -51.2974    7.0473 H   0  0  0  0  0  0  0  0  0  0  0  0
  1  2  2  0  0  0  0
  2  3  1  0  0  0  0
  2  4  1  0  0  0  0
  4 11  2  0  0  0  0
  4 22  1  0  0  0  0
  5  6  2  0  0  0  0
  5 10  1  0  0  0  0
  5 22  1  0  0  0  0
  6  7  1  0  0  0  0
  7  8  2  0  0  0  0
  8  9  1  0  0  0  0
  9 10  2  0  0  0  0
 10 11  1  0  0  0  0
 11 12  1  0  0  0  0
 12 13  1  0  0  0  0
 13 14  1  0  0  0  0
 14 15  1  0  0  0  0
 15 16  1  0  0  0  0
 16 17  2  0  0  0  0
 16 21  1  0  0  0  0
 17 18  1  0  0  0  0
 18 19  2  0  0  0  0
 19 20  1  0  0  0  0
 19 23  1  0  0  0  0
 20 21  2  0  0  0  0
  3 24  1  0  0  0  0
  6 25  1  0  0  0  0
  7 26  1  0  0  0  0
  8 27  1  0  0  0  0
  9 28  1  0  0  0  0
 12 29  1  0  0  0  0
 12 30  1  0  0  0  0
 13 31  1  0  0  0  0
 13 32  1  0  0  0  0
 14 33  1  0  0  0  0
 14 34  1  0  0  0  0
 17 35  1  0  0  0  0
 18 36  1  0  0  0  0
 20 37  1  0  0  0  0
 21 38  1  0  0  0  0
 22 39  1  0  0  0  0
M  END
> <r_user_dG.exp>
-6.8752436973459

$$$$
33
  -OEChem-05162309453D
 Structure written by MMmdl.
 39 41  0     1  0  0  0  0  0999 V2000
    3.6157  -50.1315    7.3800 O   0  0  0  0  0  0  0  0  0  0  0  0
    3.0170  -49.1138    6.9676 C   0  0  0  0  0  0  0  0  0  0  0  0
    3.5644  -47.9851    6.9019 O   0  0  0  0  0  0  0  0  0  0  0  0
    1.6043  -49.2459    6.5419 C   0  0  0  0  0  0  0  0  0  0  0  0
   -0.3113  -50.4722    6.2833 C   0  0  0  0  0  0  0  0  0  0  0  0
   -1.3178  -51.4535    6.2650 C   0  0  0  0  0  0  0  0  0  0  0  0
   -2.5967  -51.1141    5.7749 C   0  0  0  0  0  0  0  0  0  0  0  0
   -2.8523  -49.8053    5.3101 C   0  0  0  0  0  0  0  0  0  0  0  0
   -1.8339  -48.8336    5.3312 C   0  0  0  0  0  0  0  0  0  0  0  0
   -0.5363  -49.1416    5.8192 C   0  0  0  0  0  0  0  0  0  0  0  0
    0.6789  -48.3880    5.9873 C   0  0  3  0  0  0  0  0  0  0  0  0
    0.8824  -46.9418    5.6154 C   0  0  0  0  0  0  0  0  0  0  0  0
    0.6891  -45.9795    6.8002 C   0  0  0  0  0  0  0  0  0  0  0  0
   -0.7339  -45.9723    7.3808 C   0  0  0  0  0  0  0  0  0  0  0  0
   -1.6585  -45.6662    6.3443 O   0  0  0  0  0  0  0  0  0  0  0  0
   -2.9587  -45.3534    6.6806 C   0  0  0  0  0  0  0  0  0  0  0  0
   -3.4415  -45.2780    8.0126 C   0  0  0  0  0  0  0  0  0  0  0  0
   -4.7727  -44.8870    8.2638 C   0  0  0  0  0  0  0  0  0  0  0  0
   -5.6345  -44.5827    7.1953 C   0  0  0  0  0  0  0  0  0  0  0  0
   -5.1783  -44.6966    5.8690 C   0  0  0  0  0  0  0  0  0  0  0  0
   -3.8496  -45.0887    5.6179 C   0  0  0  0  0  0  0  0  0  0  0  0
    1.0091  -50.4890    6.6902 N   0  0  0  0  0  0  0  0  0  0  0  0
   -7.2450  -44.0498    7.5067 Cl  0  0  0  0  0  0  0  0  0  0  0  0
    4.4621  -48.0498    7.2061 H   0  0  0  0  0  0  0  0  0  0  0  0
   -1.1151  -52.4528    6.6210 H   0  0  0  0  0  0  0  0  0  0  0  0
   -3.3811  -51.8562    5.7552 H   0  0  0  0  0  0  0  0  0  0  0  0
   -3.8328  -49.5489    4.9370 H   0  0  0  0  0  0  0  0  0  0  0  0
   -2.0429  -47.8374    4.9703 H   0  0  0  0  0  0  0  0  0  0  0  0
    0.3539  -48.0852    6.9936 H   0  0  0  0  0  0  0  0  0  0  0  0
    1.9053  -46.8204    5.2295 H   0  0  0  0  0  0  0  0  0  0  0  0
    0.1600  -46.6779    4.8289 H   0  0  0  0  0  0  0  0  0  0  0  0
    1.3862  -46.2719    7.5993 H   0  0  0  0  0  0  0  0  0  0  0  0
    0.9279  -44.9611    6.4599 H   0  0  0  0  0  0  0  0  0  0  0  0
   -0.9655  -46.9625    7.8003 H   0  0  0  0  0  0  0  0  0  0  0  0
   -0.8044  -45.2127    8.1733 H   0  0  0  0  0  0  0  0  0  0  0  0
   -2.7872  -45.5209    8.8368 H   0  0  0  0  0  0  0  0  0  0  0  0
   -5.1316  -44.8210    9.2803 H   0  0  0  0  0  0  0  0  0  0  0  0
   -5.8451  -44.4840    5.0465 H   0  0  0  0  0  0  0  0  0  0  0  0
   -3.5072  -45.1883    4.5985 H   0  0  0  0  0  0  0  0  0  0  0  0
  1  2  2  0  0  0  0
  2  3  1  0  0  0  0
  2  4  1  0  0  0  0
  4 11  1  0  0  0  0
  4 22  2  0  0  0  0
  5  6  2  0  0  0  0
  5 10  1  0  0  0  0
  5 22  1  0  0  0  0
  6  7  1  0  0  0  0
  7  8  2  0  0  0  0
  8  9  1  0  0  0  0
  9 10  2  0  0  0  0
 10 11  1  0  0  0  0
 11 12  1  0  0  0  0
 12 13  1  0  0  0  0
 13 14  1  0  0  0  0
 14 15  1  0  0  0  0
 15 16  1  0  0  0  0
 16 17  2  0  0  0  0
 16 21  1  0  0  0  0
 17 18  1  0  0  0  0
 18 19  2  0  0  0  0
 19 20  1  0  0  0  0
 19 23  1  0  0  0  0
 20 21  2  0  0  0  0
  3 24  1  0  0  0  0
  6 25  1  0  0  0  0
  7 26  1  0  0  0  0
  8 27  1  0  0  0  0
  9 28  1  0  0  0  0
 11 29  1  0  0  0  0
 12 30  1  0  0  0  0
 12 31  1  0  0  0  0
 13 32  1  0  0  0  0
 13 33  1  0  0  0  0
 14 34  1  0  0  0  0
 14 35  1  0  0  0  0
 17 36  1  0  0  0  0
 18 37  1  0  0  0  0
 20 38  1  0  0  0  0
 21 39  1  0  0  0  0
M  END
> <r_user_dG.exp>
-6.8752436973459

$$$$
33
  -OEChem-05162309453D
 Structure written by MMmdl.
 39 41  0     1  0  0  0  0  0999 V2000
    3.6157  -50.1315    7.3800 O   0  0  0  0  0  0  0  0  0  0  0  0
    3.0170  -49.1138    6.9676 C   0  0  0  0  0  0  0  0  0  0  0  0
    3.5644  -47.9851    6.9019 O   0  0  0  0  0  0  0  0  0  0  0  0
    1.6043  -49.2459    6.5419 C   0  0  3  0  0  0  0  0  0  0  0  0
   -0.3113  -50.4722    6.2833 C   0  0  0  0  0  0  0  0  0  0  0  0
   -1.3178  -51.4535    6.2650 C   0  0  0  0  0  0  0  0  0  0  0  0
   -2.5967  -51.1141    5.7749 C   0  0  0  0  0  0  0  0  0  0  0  0
   -2.8523  -49.8053    5.3101 C   0  0  0  0  0  0  0  0  0  0  0  0
   -1.8339  -48.8336    5.3312 C   0  0  0  0  0  0  0  0  0  0  0  0
   -0.5363  -49.1416    5.8192 C   0  0  0  0  0  0  0  0  0  0  0  0
    0.6789  -48.3880    5.9873 C   0  0  0  0  0  0  0  0  0  0  0  0
    0.8824  -46.9418    5.6154 C   0  0  0  0  0  0  0  0  0  0  0  0
    0.6891  -45.9795    6.8002 C   0  0  0  0  0  0  0  0  0  0  0  0
   -0.7339  -45.9723    7.3808 C   0  0  0  0  0  0  0  0  0  0  0  0
   -1.6585  -45.6662    6.3443 O   0  0  0  0  0  0  0  0  0  0  0  0
   -2.9587  -45.3534    6.6806 C   0  0  0  0  0  0  0  0  0  0  0  0
   -3.4415  -45.2780    8.0126 C   0  0  0  0  0  0  0  0  0  0  0  0
   -4.7727  -44.8870    8.2638 C   0  0  0  0  0  0  0  0  0  0  0  0
   -5.6345  -44.5827    7.1953 C   0  0  0  0  0  0  0  0  0  0  0  0
   -5.1783  -44.6966    5.8690 C   0  0  0  0  0  0  0  0  0  0  0  0
   -3.8496  -45.0887    5.6179 C   0  0  0  0  0  0  0  0  0  0  0  0
    1.0091  -50.4890    6.6902 N   0  0  0  0  0  0  0  0  0  0  0  0
   -7.2450  -44.0498    7.5067 Cl  0  0  0  0  0  0  0  0  0  0  0  0
    4.4621  -48.0498    7.2061 H   0  0  0  0  0  0  0  0  0  0  0  0
    1.2699  -48.9611    7.5504 H   0  0  0  0  0  0  0  0  0  0  0  0
   -1.1151  -52.4528    6.6210 H   0  0  0  0  0  0  0  0  0  0  0  0
   -3.3811  -51.8562    5.7552 H   0  0  0  0  0  0  0  0  0  0  0  0
   -3.8328  -49.5489    4.9370 H   0  0  0  0  0  0  0  0  0  0  0  0
   -2.0429  -47.8374    4.9703 H   0  0  0  0  0  0  0  0  0  0  0  0
    1.9053  -46.8204    5.2295 H   0  0  0  0  0  0  0  0  0  0  0  0
    0.1600  -46.6779    4.8289 H   0  0  0  0  0  0  0  0  0  0  0  0
    1.3862  -46.2719    7.5993 H   0  0  0  0  0  0  0  0  0  0  0  0
    0.9279  -44.9611    6.4599 H   0  0  0  0  0  0  0  0  0  0  0  0
   -0.9655  -46.9625    7.8003 H   0  0  0  0  0  0  0  0  0  0  0  0
   -0.8044  -45.2127    8.1733 H   0  0  0  0  0  0  0  0  0  0  0  0
   -2.7872  -45.5209    8.8368 H   0  0  0  0  0  0  0  0  0  0  0  0
   -5.1316  -44.8210    9.2803 H   0  0  0  0  0  0  0  0  0  0  0  0
   -5.8451  -44.4840    5.0465 H   0  0  0  0  0  0  0  0  0  0  0  0
   -3.5072  -45.1883    4.5985 H   0  0  0  0  0  0  0  0  0  0  0  0
  1  2  2  0  0  0  0
  2  3  1  0  0  0  0
  2  4  1  0  0  0  0
  4 11  1  0  0  0  0
  4 22  1  0  0  0  0
  5  6  1  0  0  0  0
  5 10  1  0  0  0  0
  5 22  2  0  0  0  0
  6  7  2  0  0  0  0
  7  8  1  0  0  0  0
  8  9  2  0  0  0  0
  9 10  1  0  0  0  0
 10 11  2  0  0  0  0
 11 12  1  0  0  0  0
 12 13  1  0  0  0  0
 13 14  1  0  0  0  0
 14 15  1  0  0  0  0
 15 16  1  0  0  0  0
 16 17  2  0  0  0  0
 16 21  1  0  0  0  0
 17 18  1  0  0  0  0
 18 19  2  0  0  0  0
 19 20  1  0  0  0  0
 19 23  1  0  0  0  0
 20 21  2  0  0  0  0
  3 24  1  0  0  0  0
  4 25  1  0  0  0  0
  6 26  1  0  0  0  0
  7 27  1  0  0  0  0
  8 28  1  0  0  0  0
  9 29  1  0  0  0  0
 12 30  1  0  0  0  0
 12 31  1  0  0  0  0
 13 32  1  0  0  0  0
 13 33  1  0  0  0  0
 14 34  1  0  0  0  0
 14 35  1  0  0  0  0
 17 36  1  0  0  0  0
 18 37  1  0  0  0  0
 20 38  1  0  0  0  0
 21 39  1  0  0  0  0
M  END
> <r_user_dG.exp>
-6.8752436973459

$$$$
33
  -OEChem-05162309453D
 Structure written by MMmdl.
 39 41  0     1  0  0  0  0  0999 V2000
    3.6157  -50.1315    7.3800 O   0  0  0  0  0  0  0  0  0  0  0  0
    3.0170  -49.1138    6.9676 C   0  0  0  0  0  0  0  0  0  0  0  0
    3.5644  -47.9851    6.9019 O   0  0  0  0  0  0  0  0  0  0  0  0
    1.6043  -49.2459    6.5419 C   0  0  0  0  0  0  0  0  0  0  0  0
   -0.3113  -50.4722    6.2833 C   0  0  0  0  0  0  0  0  0  0  0  0
   -1.3178  -51.4535    6.2650 C   0  0  0  0  0  0  0  0  0  0  0  0
   -2.5967  -51.1141    5.7749 C   0  0  0  0  0  0  0  0  0  0  0  0
   -2.8523  -49.8053    5.3101 C   0  0  0  0  0  0  0  0  0  0  0  0
   -1.8339  -48.8336    5.3312 C   0  0  0  0  0  0  0  0  0  0  0  0
   -0.5363  -49.1416    5.8192 C   0  0  3  0  0  0  0  0  0  0  0  0
    0.6789  -48.3880    5.9873 C   0  0  0  0  0  0  0  0  0  0  0  0
    0.8824  -46.9418    5.6154 C   0  0  0  0  0  0  0  0  0  0  0  0
    0.6891  -45.9795    6.8002 C   0  0  0  0  0  0  0  0  0  0  0  0
   -0.7339  -45.9723    7.3808 C   0  0  0  0  0  0  0  0  0  0  0  0
   -1.6585  -45.6662    6.3443 O   0  0  0  0  0  0  0  0  0  0  0  0
   -2.9587  -45.3534    6.6806 C   0  0  0  0  0  0  0  0  0  0  0  0
   -3.4415  -45.2780    8.0126 C   0  0  0  0  0  0  0  0  0  0  0  0
   -4.7727  -44.8870    8.2638 C   0  0  0  0  0  0  0  0  0  0  0  0
   -5.6345  -44.5827    7.1953 C   0  0  0  0  0  0  0  0  0  0  0  0
   -5.1783  -44.6966    5.8690 C   0  0  0  0  0  0  0  0  0  0  0  0
   -3.8496  -45.0887    5.6179 C   0  0  0  0  0  0  0  0  0  0  0  0
    1.0091  -50.4890    6.6902 N   0  0  0  0  0  0  0  0  0  0  0  0
   -7.2450  -44.0498    7.5067 Cl  0  0  0  0  0  0  0  0  0  0  0  0
    4.4621  -48.0498    7.2061 H   0  0  0  0  0  0  0  0  0  0  0  0
   -1.1151  -52.4528    6.6210 H   0  0  0  0  0  0  0  0  0  0  0  0
   -3.3811  -51.8562    5.7552 H   0  0  0  0  0  0  0  0  0  0  0  0
   -3.8328  -49.5489    4.9370 H   0  0  0  0  0  0  0  0  0  0  0  0
   -2.0429  -47.8374    4.9703 H   0  0  0  0  0  0  0  0  0  0  0  0
   -0.2200  -49.4356    4.8075 H   0  0  0  0  0  0  0  0  0  0  0  0
    1.9053  -46.8204    5.2295 H   0  0  0  0  0  0  0  0  0  0  0  0
    0.1600  -46.6779    4.8289 H   0  0  0  0  0  0  0  0  0  0  0  0
    1.3862  -46.2719    7.5993 H   0  0  0  0  0  0  0  0  0  0  0  0
    0.9279  -44.9611    6.4599 H   0  0  0  0  0  0  0  0  0  0  0  0
   -0.9655  -46.9625    7.8003 H   0  0  0  0  0  0  0  0  0  0  0  0
   -0.8044  -45.2127    8.1733 H   0  0  0  0  0  0  0  0  0  0  0  0
   -2.7872  -45.5209    8.8368 H   0  0  0  0  0  0  0  0  0  0  0  0
   -5.1316  -44.8210    9.2803 H   0  0  0  0  0  0  0  0  0  0  0  0
   -5.8451  -44.4840    5.0465 H   0  0  0  0  0  0  0  0  0  0  0  0
   -3.5072  -45.1883    4.5985 H   0  0  0  0  0  0  0  0  0  0  0  0
  1  2  2  0  0  0  0
  2  3  1  0  0  0  0
  2  4  1  0  0  0  0
  4 11  2  0  0  0  0
  4 22  1  0  0  0  0
  5  6  1  0  0  0  0
  5 10  1  0  0  0  0
  5 22  2  0  0  0  0
  6  7  2  0  0  0  0
  7  8  1  0  0  0  0
  8  9  2  0  0  0  0
  9 10  1  0  0  0  0
 10 11  1  0  0  0  0
 11 12  1  0  0  0  0
 12 13  1  0  0  0  0
 13 14  1  0  0  0  0
 14 15  1  0  0  0  0
 15 16  1  0  0  0  0
 16 17  2  0  0  0  0
 16 21  1  0  0  0  0
 17 18  1  0  0  0  0
 18 19  2  0  0  0  0
 19 20  1  0  0  0  0
 19 23  1  0  0  0  0
 20 21  2  0  0  0  0
  3 24  1  0  0  0  0
  6 25  1  0  0  0  0
  7 26  1  0  0  0  0
  8 27  1  0  0  0  0
  9 28  1  0  0  0  0
 10 29  1  0  0  0  0
 12 30  1  0  0  0  0
 12 31  1  0  0  0  0
 13 32  1  0  0  0  0
 13 33  1  0  0  0  0
 14 34  1  0  0  0  0
 14 35  1  0  0  0  0
 17 36  1  0  0  0  0
 18 37  1  0  0  0  0
 20 38  1  0  0  0  0
 21 39  1  0  0  0  0
M  END
> <r_user_dG.exp>
-6.8752436973459

$$$$
33
  -OEChem-05162309453D
 Structure written by MMmdl.
 39 41  0     1  0  0  0  0  0999 V2000
    3.6157  -50.1315    7.3800 O   0  0  0  0  0  0  0  0  0  0  0  0
    3.0170  -49.1138    6.9676 C   0  0  0  0  0  0  0  0  0  0  0  0
    3.5644  -47.9851    6.9019 O   0  0  0  0  0  0  0  0  0  0  0  0
    1.6043  -49.2459    6.5419 C   0  0  0  0  0  0  0  0  0  0  0  0
   -0.3113  -50.4722    6.2833 C   0  0  3  0  0  0  0  0  0  0  0  0
   -1.3178  -51.4535    6.2650 C   0  0  0  0  0  0  0  0  0  0  0  0
   -2.5967  -51.1141    5.7749 C   0  0  0  0  0  0  0  0  0  0  0  0
   -2.8523  -49.8053    5.3101 C   0  0  0  0  0  0  0  0  0  0  0  0
   -1.8339  -48.8336    5.3312 C   0  0  0  0  0  0  0  0  0  0  0  0
   -0.5363  -49.1416    5.8192 C   0  0  0  0  0  0  0  0  0  0  0  0
    0.6789  -48.3880    5.9873 C   0  0  0  0  0  0  0  0  0  0  0  0
    0.8824  -46.9418    5.6154 C   0  0  0  0  0  0  0  0  0  0  0  0
    0.6891  -45.9795    6.8002 C   0  0  0  0  0  0  0  0  0  0  0  0
   -0.7339  -45.9723    7.3808 C   0  0  0  0  0  0  0  0  0  0  0  0
   -1.6585  -45.6662    6.3443 O   0  0  0  0  0  0  0  0  0  0  0  0
   -2.9587  -45.3534    6.6806 C   0  0  0  0  0  0  0  0  0  0  0  0
   -3.4415  -45.2780    8.0126 C   0  0  0  0  0  0  0  0  0  0  0  0
   -4.7727  -44.8870    8.2638 C   0  0  0  0  0  0  0  0  0  0  0  0
   -5.6345  -44.5827    7.1953 C   0  0  0  0  0  0  0  0  0  0  0  0
   -5.1783  -44.6966    5.8690 C   0  0  0  0  0  0  0  0  0  0  0  0
   -3.8496  -45.0887    5.6179 C   0  0  0  0  0  0  0  0  0  0  0  0
    1.0091  -50.4890    6.6902 N   0  0  0  0  0  0  0  0  0  0  0  0
   -7.2450  -44.0498    7.5067 Cl  0  0  0  0  0  0  0  0  0  0  0  0
    4.4621  -48.0498    7.2061 H   0  0  0  0  0  0  0  0  0  0  0  0
   -0.6205  -50.1725    7.2955 H   0  0  0  0  0  0  0  0  0  0  0  0
   -1.1151  -52.4528    6.6210 H   0  0  0  0  0  0  0  0  0  0  0  0
   -3.3811  -51.8562    5.7552 H   0  0  0  0  0  0  0  0  0  0  0  0
   -3.8328  -49.5489    4.9370 H   0  0  0  0  0  0  0  0  0  0  0  0
   -2.0429  -47.8374    4.9703 H   0  0  0  0  0  0  0  0  0  0  0  0
    1.9053  -46.8204    5.2295 H   0  0  0  0  0  0  0  0  0  0  0  0
    0.1600  -46.6779    4.8289 H   0  0  0  0  0  0  0  0  0  0  0  0
    1.3862  -46.2719    7.5993 H   0  0  0  0  0  0  0  0  0  0  0  0
    0.9279  -44.9611    6.4599 H   0  0  0  0  0  0  0  0  0  0  0  0
   -0.9655  -46.9625    7.8003 H   0  0  0  0  0  0  0  0  0  0  0  0
   -0.8044  -45.2127    8.1733 H   0  0  0  0  0  0  0  0  0  0  0  0
   -2.7872  -45.5209    8.8368 H   0  0  0  0  0  0  0  0  0  0  0  0
   -5.1316  -44.8210    9.2803 H   0  0  0  0  0  0  0  0  0  0  0  0
   -5.8451  -44.4840    5.0465 H   0  0  0  0  0  0  0  0  0  0  0  0
   -3.5072  -45.1883    4.5985 H   0  0  0  0  0  0  0  0  0  0  0  0
  1  2  2  0  0  0  0
  2  3  1  0  0  0  0
  2  4  1  0  0  0  0
  4 11  1  0  0  0  0
  4 22  2  0  0  0  0
  5  6  1  0  0  0  0
  5 10  1  0  0  0  0
  5 22  1  0  0  0  0
  6  7  2  0  0  0  0
  7  8  1  0  0  0  0
  8  9  2  0  0  0  0
  9 10  1  0  0  0  0
 10 11  2  0  0  0  0
 11 12  1  0  0  0  0
 12 13  1  0  0  0  0
 13 14  1  0  0  0  0
 14 15  1  0  0  0  0
 15 16  1  0  0  0  0
 16 17  2  0  0  0  0
 16 21  1  0  0  0  0
 17 18  1  0  0  0  0
 18 19  2  0  0  0  0
 19 20  1  0  0  0  0
 19 23  1  0  0  0  0
 20 21  2  0  0  0  0
  3 24  1  0  0  0  0
  5 25  1  0  0  0  0
  6 26  1  0  0  0  0
  7 27  1  0  0  0  0
  8 28  1  0  0  0  0
  9 29  1  0  0  0  0
 12 30  1  0  0  0  0
 12 31  1  0  0  0  0
 13 32  1  0  0  0  0
 13 33  1  0  0  0  0
 14 34  1  0  0  0  0
 14 35  1  0  0  0  0
 17 36  1  0  0  0  0
 18 37  1  0  0  0  0
 20 38  1  0  0  0  0
 21 39  1  0  0  0  0
M  END
> <r_user_dG.exp>
-6.8752436973459

$$$$
33
  -OEChem-05162309453D
 Structure written by MMmdl.
 39 41  0     0  0  0  0  0  0999 V2000
    3.6157  -50.1315    7.3800 O   0  0  0  0  0  0  0  0  0  0  0  0
    3.0170  -49.1138    6.9676 C   0  0  0  0  0  0  0  0  0  0  0  0
    3.5644  -47.9851    6.9019 O   0  0  0  0  0  0  0  0  0  0  0  0
    1.6043  -49.2459    6.5419 C   0  0  0  0  0  0  0  0  0  0  0  0
   -0.3113  -50.4722    6.2833 C   0  0  0  0  0  0  0  0  0  0  0  0
   -1.3178  -51.4535    6.2650 C   0  0  0  0  0  0  0  0  0  0  0  0
   -2.5967  -51.1141    5.7749 C   0  0  0  0  0  0  0  0  0  0  0  0
   -2.8523  -49.8053    5.3101 C   0  0  0  0  0  0  0  0  0  0  0  0
   -1.8339  -48.8336    5.3312 C   0  0  0  0  0  0  0  0  0  0  0  0
   -0.5363  -49.1416    5.8192 C   0  0  0  0  0  0  0  0  0  0  0  0
    0.6789  -48.3880    5.9873 C   0  0  0  0  0  0  0  0  0  0  0  0
    0.8824  -46.9418    5.6154 C   0  0  0  0  0  0  0  0  0  0  0  0
    0.6891  -45.9795    6.8002 C   0  0  0  0  0  0  0  0  0  0  0  0
   -0.7339  -45.9723    7.3808 C   0  0  0  0  0  0  0  0  0  0  0  0
   -1.6585  -45.6662    6.3443 O   0  0  0  0  0  0  0  0  0  0  0  0
   -2.9587  -45.3534    6.6806 C   0  0  0  0  0  0  0  0  0  0  0  0
   -3.4415  -45.2780    8.0126 C   0  0  0  0  0  0  0  0  0  0  0  0
   -4.7727  -44.8870    8.2638 C   0  0  0  0  0  0  0  0  0  0  0  0
   -5.6345  -44.5827    7.1953 C   0  0  0  0  0  0  0  0  0  0  0  0
   -5.1783  -44.6966    5.8690 C   0  0  0  0  0  0  0  0  0  0  0  0
   -3.8496  -45.0887    5.6179 C   0  0  0  0  0  0  0  0  0  0  0  0
    1.0091  -50.4890    6.6902 N   0  0  0  0  0  0  0  0  0  0  0  0
   -7.2450  -44.0498    7.5067 Cl  0  0  0  0  0  0  0  0  0  0  0  0
    4.4621  -48.0498    7.2061 H   0  0  0  0  0  0  0  0  0  0  0  0
   -1.1151  -52.4528    6.6210 H   0  0  0  0  0  0  0  0  0  0  0  0
   -3.3811  -51.8562    5.7552 H   0  0  0  0  0  0  0  0  0  0  0  0
   -3.1782  -49.8993    4.2637 H   0  0  0  0  0  0  0  0  0  0  0  0
   -3.6796  -49.4098    5.9177 H   0  0  0  0  0  0  0  0  0  0  0  0
   -2.0429  -47.8374    4.9703 H   0  0  0  0  0  0  0  0  0  0  0  0
    1.9053  -46.8204    5.2295 H   0  0  0  0  0  0  0  0  0  0  0  0
    0.1600  -46.6779    4.8289 H   0  0  0  0  0  0  0  0  0  0  0  0
    1.3862  -46.2719    7.5993 H   0  0  0  0  0  0  0  0  0  0  0  0
    0.9279  -44.9611    6.4599 H   0  0  0  0  0  0  0  0  0  0  0  0
   -0.9655  -46.9625    7.8003 H   0  0  0  0  0  0  0  0  0  0  0  0
   -0.8044  -45.2127    8.1733 H   0  0  0  0  0  0  0  0  0  0  0  0
   -2.7872  -45.5209    8.8368 H   0  0  0  0  0  0  0  0  0  0  0  0
   -5.1316  -44.8210    9.2803 H   0  0  0  0  0  0  0  0  0  0  0  0
   -5.8451  -44.4840    5.0465 H   0  0  0  0  0  0  0  0  0  0  0  0
   -3.5072  -45.1883    4.5985 H   0  0  0  0  0  0  0  0  0  0  0  0
  1  2  2  0  0  0  0
  2  3  1  0  0  0  0
  2  4  1  0  0  0  0
  4 11  2  0  0  0  0
  4 22  1  0  0  0  0
  5  6  1  0  0  0  0
  5 10  1  0  0  0  0
  5 22  2  0  0  0  0
  6  7  2  0  0  0  0
  7  8  1  0  0  0  0
  8  9  1  0  0  0  0
  9 10  2  0  0  0  0
 10 11  1  0  0  0  0
 11 12  1  0  0  0  0
 12 13  1  0  0  0  0
 13 14  1  0  0  0  0
 14 15  1  0  0  0  0
 15 16  1  0  0  0  0
 16 17  2  0  0  0  0
 16 21  1  0  0  0  0
 17 18  1  0  0  0  0
 18 19  2  0  0  0  0
 19 20  1  0  0  0  0
 19 23  1  0  0  0  0
 20 21  2  0  0  0  0
  3 24  1  0  0  0  0
  6 25  1  0  0  0  0
  7 26  1  0  0  0  0
  8 27  1  0  0  0  0
  8 28  1  0  0  0  0
  9 29  1  0  0  0  0
 12 30  1  0  0  0  0
 12 31  1  0  0  0  0
 13 32  1  0  0  0  0
 13 33  1  0  0  0  0
 14 34  1  0  0  0  0
 14 35  1  0  0  0  0
 17 36  1  0  0  0  0
 18 37  1  0  0  0  0
 20 38  1  0  0  0  0
 21 39  1  0  0  0  0
M  END
> <r_user_dG.exp>
-6.8752436973459

$$$$
33
  -OEChem-05162309453D
 Structure written by MMmdl.
 39 41  0     0  0  0  0  0  0999 V2000
    3.6157  -50.1315    7.3800 O   0  0  0  0  0  0  0  0  0  0  0  0
    3.0170  -49.1138    6.9676 C   0  0  0  0  0  0  0  0  0  0  0  0
    3.5644  -47.9851    6.9019 O   0  0  0  0  0  0  0  0  0  0  0  0
    1.6043  -49.2459    6.5419 C   0  0  0  0  0  0  0  0  0  0  0  0
   -0.3113  -50.4722    6.2833 C   0  0  0  0  0  0  0  0  0  0  0  0
   -1.3178  -51.4535    6.2650 C   0  0  0  0  0  0  0  0  0  0  0  0
   -2.5967  -51.1141    5.7749 C   0  0  0  0  0  0  0  0  0  0  0  0
   -2.8523  -49.8053    5.3101 C   0  0  0  0  0  0  0  0  0  0  0  0
   -1.8339  -48.8336    5.3312 C   0  0  0  0  0  0  0  0  0  0  0  0
   -0.5363  -49.1416    5.8192 C   0  0  0  0  0  0  0  0  0  0  0  0
    0.6789  -48.3880    5.9873 C   0  0  0  0  0  0  0  0  0  0  0  0
    0.8824  -46.9418    5.6154 C   0  0  0  0  0  0  0  0  0  0  0  0
    0.6891  -45.9795    6.8002 C   0  0  0  0  0  0  0  0  0  0  0  0
   -0.7339  -45.9723    7.3808 C   0  0  0  0  0  0  0  0  0  0  0  0
   -1.6585  -45.6662    6.3443 O   0  0  0  0  0  0  0  0  0  0  0  0
   -2.9587  -45.3534    6.6806 C   0  0  0  0  0  0  0  0  0  0  0  0
   -3.4415  -45.2780    8.0126 C   0  0  0  0  0  0  0  0  0  0  0  0
   -4.7727  -44.8870    8.2638 C   0  0  0  0  0  0  0  0  0  0  0  0
   -5.6345  -44.5827    7.1953 C   0  0  0  0  0  0  0  0  0  0  0  0
   -5.1783  -44.6966    5.8690 C   0  0  0  0  0  0  0  0  0  0  0  0
   -3.8496  -45.0887    5.6179 C   0  0  0  0  0  0  0  0  0  0  0  0
    1.0091  -50.4890    6.6902 N   0  0  0  0  0  0  0  0  0  0  0  0
   -7.2450  -44.0498    7.5067 Cl  0  0  0  0  0  0  0  0  0  0  0  0
    4.4621  -48.0498    7.2061 H   0  0  0  0  0  0  0  0  0  0  0  0
   -1.1151  -52.4528    6.6210 H   0  0  0  0  0  0  0  0  0  0  0  0
   -2.8060  -51.7949    4.9366 H   0  0  0  0  0  0  0  0  0  0  0  0
   -3.3099  -51.3061    6.5900 H   0  0  0  0  0  0  0  0  0  0  0  0
   -3.8328  -49.5489    4.9370 H   0  0  0  0  0  0  0  0  0  0  0  0
   -2.0429  -47.8374    4.9703 H   0  0  0  0  0  0  0  0  0  0  0  0
    1.9053  -46.8204    5.2295 H   0  0  0  0  0  0  0  0  0  0  0  0
    0.1600  -46.6779    4.8289 H   0  0  0  0  0  0  0  0  0  0  0  0
    1.3862  -46.2719    7.5993 H   0  0  0  0  0  0  0  0  0  0  0  0
    0.9279  -44.9611    6.4599 H   0  0  0  0  0  0  0  0  0  0  0  0
   -0.9655  -46.9625    7.8003 H   0  0  0  0  0  0  0  0  0  0  0  0
   -0.8044  -45.2127    8.1733 H   0  0  0  0  0  0  0  0  0  0  0  0
   -2.7872  -45.5209    8.8368 H   0  0  0  0  0  0  0  0  0  0  0  0
   -5.1316  -44.8210    9.2803 H   0  0  0  0  0  0  0  0  0  0  0  0
   -5.8451  -44.4840    5.0465 H   0  0  0  0  0  0  0  0  0  0  0  0
   -3.5072  -45.1883    4.5985 H   0  0  0  0  0  0  0  0  0  0  0  0
  1  2  2  0  0  0  0
  2  3  1  0  0  0  0
  2  4  1  0  0  0  0
  4 11  1  0  0  0  0
  4 22  2  0  0  0  0
  5  6  2  0  0  0  0
  5 10  1  0  0  0  0
  5 22  1  0  0  0  0
  6  7  1  0  0  0  0
  7  8  1  0  0  0  0
  8  9  2  0  0  0  0
  9 10  1  0  0  0  0
 10 11  2  0  0  0  0
 11 12  1  0  0  0  0
 12 13  1  0  0  0  0
 13 14  1  0  0  0  0
 14 15  1  0  0  0  0
 15 16  1  0  0  0  0
 16 17  2  0  0  0  0
 16 21  1  0  0  0  0
 17 18  1  0  0  0  0
 18 19  2  0  0  0  0
 19 20  1  0  0  0  0
 19 23  1  0  0  0  0
 20 21  2  0  0  0  0
  3 24  1  0  0  0  0
  6 25  1  0  0  0  0
  7 26  1  0  0  0  0
  7 27  1  0  0  0  0
  8 28  1  0  0  0  0
  9 29  1  0  0  0  0
 12 30  1  0  0  0  0
 12 31  1  0  0  0  0
 13 32  1  0  0  0  0
 13 33  1  0  0  0  0
 14 34  1  0  0  0  0
 14 35  1  0  0  0  0
 17 36  1  0  0  0  0
 18 37  1  0  0  0  0
 20 38  1  0  0  0  0
 21 39  1  0  0  0  0
M  END
> <r_user_dG.exp>
-6.8752436973459

$$$$
33
  -OEChem-05162309453D
 Structure written by MMmdl.
 39 41  0     0  0  0  0  0  0999 V2000
    3.6157  -50.1315    7.3800 O   0  0  0  0  0  0  0  0  0  0  0  0
    3.0170  -49.1138    6.9676 C   0  0  0  0  0  0  0  0  0  0  0  0
    3.5644  -47.9851    6.9019 O   0  0  0  0  0  0  0  0  0  0  0  0
    1.6043  -49.2459    6.5419 C   0  0  0  0  0  0  0  0  0  0  0  0
   -0.3113  -50.4722    6.2833 C   0  0  0  0  0  0  0  0  0  0  0  0
   -1.3178  -51.4535    6.2650 C   0  0  0  0  0  0  0  0  0  0  0  0
   -2.5967  -51.1141    5.7749 C   0  0  0  0  0  0  0  0  0  0  0  0
   -2.8523  -49.8053    5.3101 C   0  0  0  0  0  0  0  0  0  0  0  0
   -1.8339  -48.8336    5.3312 C   0  0  0  0  0  0  0  0  0  0  0  0
   -0.5363  -49.1416    5.8192 C   0  0  0  0  0  0  0  0  0  0  0  0
    0.6789  -48.3880    5.9873 C   0  0  0  0  0  0  0  0  0  0  0  0
    0.8824  -46.9418    5.6154 C   0  0  0  0  0  0  0  0  0  0  0  0
    0.6891  -45.9795    6.8002 C   0  0  0  0  0  0  0  0  0  0  0  0
   -0.7339  -45.9723    7.3808 C   0  0  0  0  0  0  0  0  0  0  0  0
   -1.6585  -45.6662    6.3443 O   0  0  0  0  0  0  0  0  0  0  0  0
   -2.9587  -45.3534    6.6806 C   0  0  0  0  0  0  0  0  0  0  0  0
   -3.4415  -45.2780    8.0126 C   0  0  0  0  0  0  0  0  0  0  0  0
   -4.7727  -44.8870    8.2638 C   0  0  0  0  0  0  0  0  0  0  0  0
   -5.6345  -44.5827    7.1953 C   0  0  0  0  0  0  0  0  0  0  0  0
   -5.1783  -44.6966    5.8690 C   0  0  0  0  0  0  0  0  0  0  0  0
   -3.8496  -45.0887    5.6179 C   0  0  0  0  0  0  0  0  0  0  0  0
    1.0091  -50.4890    6.6902 N   0  0  0  0  0  0  0  0  0  0  0  0
   -7.2450  -44.0498    7.5067 Cl  0  0  0  0  0  0  0  0  0  0  0  0
    4.4621  -48.0498    7.2061 H   0  0  0  0  0  0  0  0  0  0  0  0
   -0.9463  -52.2845    5.6474 H   0  0  0  0  0  0  0  0  0  0  0  0
   -1.4509  -51.7978    7.3012 H   0  0  0  0  0  0  0  0  0  0  0  0
   -3.3811  -51.8562    5.7552 H   0  0  0  0  0  0  0  0  0  0  0  0
   -3.8328  -49.5489    4.9370 H   0  0  0  0  0  0  0  0  0  0  0  0
   -2.0429  -47.8374    4.9703 H   0  0  0  0  0  0  0  0  0  0  0  0
    1.9053  -46.8204    5.2295 H   0  0  0  0  0  0  0  0  0  0  0  0
    0.1600  -46.6779    4.8289 H   0  0  0  0  0  0  0  0  0  0  0  0
    1.3862  -46.2719    7.5993 H   0  0  0  0  0  0  0  0  0  0  0  0
    0.9279  -44.9611    6.4599 H   0  0  0  0  0  0  0  0  0  0  0  0
   -0.9655  -46.9625    7.8003 H   0  0  0  0  0  0  0  0  0  0  0  0
   -0.8044  -45.2127    8.1733 H   0  0  0  0  0  0  0  0  0  0  0  0
   -2.7872  -45.5209    8.8368 H   0  0  0  0  0  0  0  0  0  0  0  0
   -5.1316  -44.8210    9.2803 H   0  0  0  0  0  0  0  0  0  0  0  0
   -5.8451  -44.4840    5.0465 H   0  0  0  0  0  0  0  0  0  0  0  0
   -3.5072  -45.1883    4.5985 H   0  0  0  0  0  0  0  0  0  0  0  0
  1  2  2  0  0  0  0
  2  3  1  0  0  0  0
  2  4  1  0  0  0  0
  4 11  2  0  0  0  0
  4 22  1  0  0  0  0
  5  6  1  0  0  0  0
  5 10  1  0  0  0  0
  5 22  2  0  0  0  0
  6  7  1  0  0  0  0
  7  8  2  0  0  0  0
  8  9  1  0  0  0  0
  9 10  2  0  0  0  0
 10 11  1  0  0  0  0
 11 12  1  0  0  0  0
 12 13  1  0  0  0  0
 13 14  1  0  0  0  0
 14 15  1  0  0  0  0
 15 16  1  0  0  0  0
 16 17  2  0  0  0  0
 16 21  1  0  0  0  0
 17 18  1  0  0  0  0
 18 19  2  0  0  0  0
 19 20  1  0  0  0  0
 19 23  1  0  0  0  0
 20 21  2  0  0  0  0
  3 24  1  0  0  0  0
  6 25  1  0  0  0  0
  6 26  1  0  0  0  0
  7 27  1  0  0  0  0
  8 28  1  0  0  0  0
  9 29  1  0  0  0  0
 12 30  1  0  0  0  0
 12 31  1  0  0  0  0
 13 32  1  0  0  0  0
 13 33  1  0  0  0  0
 14 34  1  0  0  0  0
 14 35  1  0  0  0  0
 17 36  1  0  0  0  0
 18 37  1  0  0  0  0
 20 38  1  0  0  0  0
 21 39  1  0  0  0  0
M  END
> <r_user_dG.exp>
-6.8752436973459

$$$$
33
  -OEChem-05162309453D
 Structure written by MMmdl.
 39 41  0     0  0  0  0  0  0999 V2000
    3.6157  -50.1315    7.3800 O   0  0  0  0  0  0  0  0  0  0  0  0
    3.0170  -49.1138    6.9676 C   0  0  0  0  0  0  0  0  0  0  0  0
    3.5644  -47.9851    6.9019 O   0  0  0  0  0  0  0  0  0  0  0  0
    1.6043  -49.2459    6.5419 C   0  0  0  0  0  0  0  0  0  0  0  0
   -0.3113  -50.4722    6.2833 C   0  0  0  0  0  0  0  0  0  0  0  0
   -1.3178  -51.4535    6.2650 C   0  0  0  0  0  0  0  0  0  0  0  0
   -2.5967  -51.1141    5.7749 C   0  0  0  0  0  0  0  0  0  0  0  0
   -2.8523  -49.8053    5.3101 C   0  0  0  0  0  0  0  0  0  0  0  0
   -1.8339  -48.8336    5.3312 C   0  0  0  0  0  0  0  0  0  0  0  0
   -0.5363  -49.1416    5.8192 C   0  0  0  0  0  0  0  0  0  0  0  0
    0.6789  -48.3880    5.9873 C   0  0  0  0  0  0  0  0  0  0  0  0
    0.8824  -46.9418    5.6154 C   0  0  0  0  0  0  0  0  0  0  0  0
    0.6891  -45.9795    6.8002 C   0  0  0  0  0  0  0  0  0  0  0  0
   -0.7339  -45.9723    7.3808 C   0  0  0  0  0  0  0  0  0  0  0  0
   -1.6585  -45.6662    6.3443 O   0  0  0  0  0  0  0  0  0  0  0  0
   -2.9587  -45.3534    6.6806 C   0  0  0  0  0  0  0  0  0  0  0  0
   -3.4415  -45.2780    8.0126 C   0  0  0  0  0  0  0  0  0  0  0  0
   -4.7727  -44.8870    8.2638 C   0  0  0  0  0  0  0  0  0  0  0  0
   -5.6345  -44.5827    7.1953 C   0  0  0  0  0  0  0  0  0  0  0  0
   -5.1783  -44.6966    5.8690 C   0  0  0  0  0  0  0  0  0  0  0  0
   -3.8496  -45.0887    5.6179 C   0  0  0  0  0  0  0  0  0  0  0  0
    1.0091  -50.4890    6.6902 N   0  0  0  0  0  0  0  0  0  0  0  0
   -7.2450  -44.0498    7.5067 Cl  0  0  0  0  0  0  0  0  0  0  0  0
    4.4621  -48.0498    7.2061 H   0  0  0  0  0  0  0  0  0  0  0  0
   -1.1151  -52.4528    6.6210 H   0  0  0  0  0  0  0  0  0  0  0  0
   -3.3811  -51.8562    5.7552 H   0  0  0  0  0  0  0  0  0  0  0  0
   -3.8328  -49.5489    4.9370 H   0  0  0  0  0  0  0  0  0  0  0  0
   -1.7046  -48.4941    4.2929 H   0  0  0  0  0  0  0  0  0  0  0  0
   -2.2090  -48.0014    5.9450 H   0  0  0  0  0  0  0  0  0  0  0  0
    1.9053  -46.8204    5.2295 H   0  0  0  0  0  0  0  0  0  0  0  0
    0.1600  -46.6779    4.8289 H   0  0  0  0  0  0  0  0  0  0  0  0
    1.3862  -46.2719    7.5993 H   0  0  0  0  0  0  0  0  0  0  0  0
    0.9279  -44.9611    6.4599 H   0  0  0  0  0  0  0  0  0  0  0  0
   -0.9655  -46.9625    7.8003 H   0  0  0  0  0  0  0  0  0  0  0  0
   -0.8044  -45.2127    8.1733 H   0  0  0  0  0  0  0  0  0  0  0  0
   -2.7872  -45.5209    8.8368 H   0  0  0  0  0  0  0  0  0  0  0  0
   -5.1316  -44.8210    9.2803 H   0  0  0  0  0  0  0  0  0  0  0  0
   -5.8451  -44.4840    5.0465 H   0  0  0  0  0  0  0  0  0  0  0  0
   -3.5072  -45.1883    4.5985 H   0  0  0  0  0  0  0  0  0  0  0  0
  1  2  2  0  0  0  0
  2  3  1  0  0  0  0
  2  4  1  0  0  0  0
  4 11  1  0  0  0  0
  4 22  2  0  0  0  0
  5  6  2  0  0  0  0
  5 10  1  0  0  0  0
  5 22  1  0  0  0  0
  6  7  1  0  0  0  0
  7  8  2  0  0  0  0
  8  9  1  0  0  0  0
  9 10  1  0  0  0  0
 10 11  2  0  0  0  0
 11 12  1  0  0  0  0
 12 13  1  0  0  0  0
 13 14  1  0  0  0  0
 14 15  1  0  0  0  0
 15 16  1  0  0  0  0
 16 17  2  0  0  0  0
 16 21  1  0  0  0  0
 17 18  1  0  0  0  0
 18 19  2  0  0  0  0
 19 20  1  0  0  0  0
 19 23  1  0  0  0  0
 20 21  2  0  0  0  0
  3 24  1  0  0  0  0
  6 25  1  0  0  0  0
  7 26  1  0  0  0  0
  8 27  1  0  0  0  0
  9 28  1  0  0  0  0
  9 29  1  0  0  0  0
 12 30  1  0  0  0  0
 12 31  1  0  0  0  0
 13 32  1  0  0  0  0
 13 33  1  0  0  0  0
 14 34  1  0  0  0  0
 14 35  1  0  0  0  0
 17 36  1  0  0  0  0
 18 37  1  0  0  0  0
 20 38  1  0  0  0  0
 21 39  1  0  0  0  0
M  END
> <r_user_dG.exp>
-6.8752436973459

$$$$
33
  -OEChem-05162309453D
 Structure written by MMmdl.
 39 41  0     0  0  0  0  0  0999 V2000
    3.6157  -50.1315    7.3800 O   0  0  0  0  0  0  0  0  0  0  0  0
    3.0170  -49.1138    6.9676 C   0  0  0  0  0  0  0  0  0  0  0  0
    3.5644  -47.9851    6.9019 O   0  0  0  0  0  0  0  0  0  0  0  0
    1.6043  -49.2459    6.5419 C   0  0  0  0  0  0  0  0  0  0  0  0
   -0.3113  -50.4722    6.2833 C   0  0  0  0  0  0  0  0  0  0  0  0
   -1.3178  -51.4535    6.2650 C   0  0  0  0  0  0  0  0  0  0  0  0
   -2.5967  -51.1141    5.7749 C   0  0  0  0  0  0  0  0  0  0  0  0
   -2.8523  -49.8053    5.3101 C   0  0  0  0  0  0  0  0  0  0  0  0
   -1.8339  -48.8336    5.3312 C   0  0  0  0  0  0  0  0  0  0  0  0
   -0.5363  -49.1416    5.8192 C   0  0  0  0  0  0  0  0  0  0  0  0
    0.6789  -48.3880    5.9873 C   0  0  0  0  0  0  0  0  0  0  0  0
    0.8824  -46.9418    5.6154 C   0  0  0  0  0  0  0  0  0  0  0  0
    0.6891  -45.9795    6.8002 C   0  0  0  0  0  0  0  0  0  0  0  0
   -0.7339  -45.9723    7.3808 C   0  0  0  0  0  0  0  0  0  0  0  0
   -1.6585  -45.6662    6.3443 O   0  0  0  0  0  0  0  0  0  0  0  0
   -2.9587  -45.3534    6.6806 C   0  0  0  0  0  0  0  0  0  0  0  0
   -3.4415  -45.2780    8.0126 C   0  0  0  0  0  0  0  0  0  0  0  0
   -4.7727  -44.8870    8.2638 C   0  0  0  0  0  0  0  0  0  0  0  0
   -5.6345  -44.5827    7.1953 C   0  0  0  0  0  0  0  0  0  0  0  0
   -5.1783  -44.6966    5.8690 C   0  0  0  0  0  0  0  0  0  0  0  0
   -3.8496  -45.0887    5.6179 C   0  0  0  0  0  0  0  0  0  0  0  0
    1.0091  -50.4890    6.6902 N   0  0  0  0  0  0  0  0  0  0  0  0
   -7.2450  -44.0498    7.5067 Cl  0  0  0  0  0  0  0  0  0  0  0  0
    3.0290  -50.8781    7.3509 H   0  0  0  0  0  0  0  0  0  0  0  0
    2.9431  -47.3505    6.5646 H   0  0  0  0  0  0  0  0  0  0  0  0
   -1.1151  -52.4528    6.6210 H   0  0  0  0  0  0  0  0  0  0  0  0
   -3.3811  -51.8562    5.7552 H   0  0  0  0  0  0  0  0  0  0  0  0
   -3.8328  -49.5489    4.9370 H   0  0  0  0  0  0  0  0  0  0  0  0
   -2.0429  -47.8374    4.9703 H   0  0  0  0  0  0  0  0  0  0  0  0
    1.9053  -46.8204    5.2295 H   0  0  0  0  0  0  0  0  0  0  0  0
    0.1600  -46.6779    4.8289 H   0  0  0  0  0  0  0  0  0  0  0  0
    1.3862  -46.2719    7.5993 H   0  0  0  0  0  0  0  0  0  0  0  0
    0.9279  -44.9611    6.4599 H   0  0  0  0  0  0  0  0  0  0  0  0
   -0.9655  -46.9625    7.8003 H   0  0  0  0  0  0  0  0  0  0  0  0
   -0.8044  -45.2127    8.1733 H   0  0  0  0  0  0  0  0  0  0  0  0
   -2.7872  -45.5209    8.8368 H   0  0  0  0  0  0  0  0  0  0  0  0
   -5.1316  -44.8210    9.2803 H   0  0  0  0  0  0  0  0  0  0  0  0
   -5.8451  -44.4840    5.0465 H   0  0  0  0  0  0  0  0  0  0  0  0
   -3.5072  -45.1883    4.5985 H   0  0  0  0  0  0  0  0  0  0  0  0
  1  2  1  0  0  0  0
  2  3  1  0  0  0  0
  2  4  2  0  0  0  0
  4 11  1  0  0  0  0
  4 22  1  0  0  0  0
  5  6  1  0  0  0  0
  5 10  1  0  0  0  0
  5 22  2  0  0  0  0
  6  7  2  0  0  0  0
  7  8  1  0  0  0  0
  8  9  2  0  0  0  0
  9 10  1  0  0  0  0
 10 11  2  0  0  0  0
 11 12  1  0  0  0  0
 12 13  1  0  0  0  0
 13 14  1  0  0  0  0
 14 15  1  0  0  0  0
 15 16  1  0  0  0  0
 16 17  2  0  0  0  0
 16 21  1  0  0  0  0
 17 18  1  0  0  0  0
 18 19  2  0  0  0  0
 19 20  1  0  0  0  0
 19 23  1  0  0  0  0
 20 21  2  0  0  0  0
  1 24  1  0  0  0  0
  3 25  1  0  0  0  0
  6 26  1  0  0  0  0
  7 27  1  0  0  0  0
  8 28  1  0  0  0  0
  9 29  1  0  0  0  0
 12 30  1  0  0  0  0
 12 31  1  0  0  0  0
 13 32  1  0  0  0  0
 13 33  1  0  0  0  0
 14 34  1  0  0  0  0
 14 35  1  0  0  0  0
 17 36  1  0  0  0  0
 18 37  1  0  0  0  0
 20 38  1  0  0  0  0
 21 39  1  0  0  0  0
M  END
> <r_user_dG.exp>
-6.8752436973459

$$$$
