44
  -OEChem-05162309453D
 Structure written by MMmdl.
 45 48  0     0  0  0  0  0  0999 V2000
    3.5638  -47.8398    6.3294 O   0  0  0  0  0  0  0  0  0  0  0  0
    3.0055  -48.8795    6.7362 C   0  0  0  0  0  0  0  0  0  0  0  0
    3.6001  -49.7033    7.4706 O   0  0  0  0  0  0  0  0  0  0  0  0
    1.6002  -49.1348    6.3550 C   0  0  0  0  0  0  0  0  0  0  0  0
   -0.2707  -50.4496    6.3395 C   0  0  0  0  0  0  0  0  0  0  0  0
   -1.2446  -51.4534    6.4978 C   0  0  0  0  0  0  0  0  0  0  0  0
   -2.5290  -51.2642    5.9573 C   0  0  0  0  0  0  0  0  0  0  0  0
   -2.8264  -50.0751    5.2634 C   0  0  0  0  0  0  0  0  0  0  0  0
   -1.8457  -49.0732    5.1109 C   0  0  0  0  0  0  0  0  0  0  0  0
   -0.5465  -49.2371    5.6460 C   0  0  0  0  0  0  0  0  0  0  0  0
    0.6398  -48.4122    5.6803 C   0  0  0  0  0  0  0  0  0  0  0  0
    0.7658  -47.0204    5.1109 C   0  0  0  0  0  0  0  0  0  0  0  0
    0.8382  -45.9174    6.1894 C   0  0  0  0  0  0  0  0  0  0  0  0
   -0.2514  -46.0044    7.2636 C   0  0  0  0  0  0  0  0  0  0  0  0
   -1.5116  -45.6953    6.6849 O   0  0  0  0  0  0  0  0  0  0  0  0
   -2.6160  -45.6893    7.5101 C   0  0  0  0  0  0  0  0  0  0  0  0
   -4.9357  -45.6105    9.1489 C   0  0  0  0  0  0  0  0  0  0  0  0
   -3.7951  -46.3194    9.5617 C   0  0  0  0  0  0  0  0  0  0  0  0
   -2.6431  -46.3574    8.7572 C   0  0  0  0  0  0  0  0  0  0  0  0
   -4.9328  -44.9377    7.9019 C   0  0  0  0  0  0  0  0  0  0  0  0
   -3.7720  -44.9848    7.0812 C   0  0  0  0  0  0  0  0  0  0  0  0
   -3.7720  -44.3169    5.8386 C   0  0  0  0  0  0  0  0  0  0  0  0
   -4.9088  -43.6148    5.4042 C   0  0  0  0  0  0  0  0  0  0  0  0
   -6.0601  -43.5677    6.2105 C   0  0  0  0  0  0  0  0  0  0  0  0
   -6.0722  -44.2246    7.4561 C   0  0  0  0  0  0  0  0  0  0  0  0
   -6.3143  -45.5879   10.1970 Cl  0  0  0  0  0  0  0  0  0  0  0  0
    1.0415  -50.3407    6.7514 N   0  0  0  0  0  0  0  0  0  0  0  0
    4.4843  -49.3987    7.6378 H   0  0  0  0  0  0  0  0  0  0  0  0
   -1.0072  -52.3624    7.0305 H   0  0  0  0  0  0  0  0  0  0  0  0
   -3.2842  -52.0274    6.0738 H   0  0  0  0  0  0  0  0  0  0  0  0
   -3.8116  -49.9297    4.8455 H   0  0  0  0  0  0  0  0  0  0  0  0
   -2.0904  -48.1667    4.5773 H   0  0  0  0  0  0  0  0  0  0  0  0
    1.6819  -46.9743    4.5038 H   0  0  0  0  0  0  0  0  0  0  0  0
   -0.1079  -46.8254    4.4717 H   0  0  0  0  0  0  0  0  0  0  0  0
    1.8169  -45.9872    6.6867 H   0  0  0  0  0  0  0  0  0  0  0  0
    0.7499  -44.9417    5.6891 H   0  0  0  0  0  0  0  0  0  0  0  0
   -0.2778  -47.0232    7.6776 H   0  0  0  0  0  0  0  0  0  0  0  0
   -0.0314  -45.2873    8.0682 H   0  0  0  0  0  0  0  0  0  0  0  0
   -3.8035  -46.8408   10.5075 H   0  0  0  0  0  0  0  0  0  0  0  0
   -1.7722  -46.9005    9.0934 H   0  0  0  0  0  0  0  0  0  0  0  0
   -2.8902  -44.3455    5.2156 H   0  0  0  0  0  0  0  0  0  0  0  0
   -4.8985  -43.1103    4.4493 H   0  0  0  0  0  0  0  0  0  0  0  0
   -6.9337  -43.0285    5.8749 H   0  0  0  0  0  0  0  0  0  0  0  0
   -6.9561  -44.1843    8.0754 H   0  0  0  0  0  0  0  0  0  0  0  0
    1.5286  -51.0430    7.2705 H   0  0  0  0  0  0  0  0  0  0  0  0
  1  2  2  0  0  0  0
  2  3  1  0  0  0  0
  2  4  1  0  0  0  0
  4 11  2  0  0  0  0
  4 27  1  0  0  0  0
  5  6  2  0  0  0  0
  5 10  1  0  0  0  0
  5 27  1  0  0  0  0
  6  7  1  0  0  0  0
  7  8  2  0  0  0  0
  8  9  1  0  0  0  0
  9 10  2  0  0  0  0
 10 11  1  0  0  0  0
 11 12  1  0  0  0  0
 12 13  1  0  0  0  0
 13 14  1  0  0  0  0
 14 15  1  0  0  0  0
 15 16  1  0  0  0  0
 16 19  2  0  0  0  0
 16 21  1  0  0  0  0
 17 18  2  0  0  0  0
 17 20  1  0  0  0  0
 17 26  1  0  0  0  0
 18 19  1  0  0  0  0
 20 21  2  0  0  0  0
 20 25  1  0  0  0  0
 21 22  1  0  0  0  0
 22 23  2  0  0  0  0
 23 24  1  0  0  0  0
 24 25  2  0  0  0  0
  3 28  1  0  0  0  0
  6 29  1  0  0  0  0
  7 30  1  0  0  0  0
  8 31  1  0  0  0  0
  9 32  1  0  0  0  0
 12 33  1  0  0  0  0
 12 34  1  0  0  0  0
 13 35  1  0  0  0  0
 13 36  1  0  0  0  0
 14 37  1  0  0  0  0
 14 38  1  0  0  0  0
 18 39  1  0  0  0  0
 19 40  1  0  0  0  0
 22 41  1  0  0  0  0
 23 42  1  0  0  0  0
 24 43  1  0  0  0  0
 25 44  1  0  0  0  0
 27 45  1  0  0  0  0
M  END
> <r_user_dG.exp>
-8.6733813532598

$$$$
44
  -OEChem-05162309453D
 Structure written by MMmdl.
 45 48  0     1  0  0  0  0  0999 V2000
    3.5638  -47.8398    6.3294 O   0  0  0  0  0  0  0  0  0  0  0  0
    3.0055  -48.8795    6.7362 C   0  0  0  0  0  0  0  0  0  0  0  0
    3.6001  -49.7033    7.4706 O   0  0  0  0  0  0  0  0  0  0  0  0
    1.6002  -49.1348    6.3550 C   0  0  0  0  0  0  0  0  0  0  0  0
   -0.2707  -50.4496    6.3395 C   0  0  0  0  0  0  0  0  0  0  0  0
   -1.2446  -51.4534    6.4978 C   0  0  0  0  0  0  0  0  0  0  0  0
   -2.5290  -51.2642    5.9573 C   0  0  0  0  0  0  0  0  0  0  0  0
   -2.8264  -50.0751    5.2634 C   0  0  0  0  0  0  0  0  0  0  0  0
   -1.8457  -49.0732    5.1109 C   0  0  0  0  0  0  0  0  0  0  0  0
   -0.5465  -49.2371    5.6460 C   0  0  0  0  0  0  0  0  0  0  0  0
    0.6398  -48.4122    5.6803 C   0  0  3  0  0  0  0  0  0  0  0  0
    0.7658  -47.0204    5.1109 C   0  0  0  0  0  0  0  0  0  0  0  0
    0.8382  -45.9174    6.1894 C   0  0  0  0  0  0  0  0  0  0  0  0
   -0.2514  -46.0044    7.2636 C   0  0  0  0  0  0  0  0  0  0  0  0
   -1.5116  -45.6953    6.6849 O   0  0  0  0  0  0  0  0  0  0  0  0
   -2.6160  -45.6893    7.5101 C   0  0  0  0  0  0  0  0  0  0  0  0
   -4.9357  -45.6105    9.1489 C   0  0  0  0  0  0  0  0  0  0  0  0
   -3.7951  -46.3194    9.5617 C   0  0  0  0  0  0  0  0  0  0  0  0
   -2.6431  -46.3574    8.7572 C   0  0  0  0  0  0  0  0  0  0  0  0
   -4.9328  -44.9377    7.9019 C   0  0  0  0  0  0  0  0  0  0  0  0
   -3.7720  -44.9848    7.0812 C   0  0  0  0  0  0  0  0  0  0  0  0
   -3.7720  -44.3169    5.8386 C   0  0  0  0  0  0  0  0  0  0  0  0
   -4.9088  -43.6148    5.4042 C   0  0  0  0  0  0  0  0  0  0  0  0
   -6.0601  -43.5677    6.2105 C   0  0  0  0  0  0  0  0  0  0  0  0
   -6.0722  -44.2246    7.4561 C   0  0  0  0  0  0  0  0  0  0  0  0
   -6.3143  -45.5879   10.1970 Cl  0  0  0  0  0  0  0  0  0  0  0  0
    1.0415  -50.3407    6.7514 N   0  0  0  0  0  0  0  0  0  0  0  0
    4.4843  -49.3987    7.6378 H   0  0  0  0  0  0  0  0  0  0  0  0
   -1.0072  -52.3624    7.0305 H   0  0  0  0  0  0  0  0  0  0  0  0
   -3.2842  -52.0274    6.0738 H   0  0  0  0  0  0  0  0  0  0  0  0
   -3.8116  -49.9297    4.8455 H   0  0  0  0  0  0  0  0  0  0  0  0
   -2.0904  -48.1667    4.5773 H   0  0  0  0  0  0  0  0  0  0  0  0
    0.9758  -48.8417    4.7250 H   0  0  0  0  0  0  0  0  0  0  0  0
    1.6819  -46.9743    4.5038 H   0  0  0  0  0  0  0  0  0  0  0  0
   -0.1079  -46.8254    4.4717 H   0  0  0  0  0  0  0  0  0  0  0  0
    1.8169  -45.9872    6.6867 H   0  0  0  0  0  0  0  0  0  0  0  0
    0.7499  -44.9417    5.6891 H   0  0  0  0  0  0  0  0  0  0  0  0
   -0.2778  -47.0232    7.6776 H   0  0  0  0  0  0  0  0  0  0  0  0
   -0.0314  -45.2873    8.0682 H   0  0  0  0  0  0  0  0  0  0  0  0
   -3.8035  -46.8408   10.5075 H   0  0  0  0  0  0  0  0  0  0  0  0
   -1.7722  -46.9005    9.0934 H   0  0  0  0  0  0  0  0  0  0  0  0
   -2.8902  -44.3455    5.2156 H   0  0  0  0  0  0  0  0  0  0  0  0
   -4.8985  -43.1103    4.4493 H   0  0  0  0  0  0  0  0  0  0  0  0
   -6.9337  -43.0285    5.8749 H   0  0  0  0  0  0  0  0  0  0  0  0
   -6.9561  -44.1843    8.0754 H   0  0  0  0  0  0  0  0  0  0  0  0
  1  2  2  0  0  0  0
  2  3  1  0  0  0  0
  2  4  1  0  0  0  0
  4 11  1  0  0  0  0
  4 27  2  0  0  0  0
  5  6  2  0  0  0  0
  5 10  1  0  0  0  0
  5 27  1  0  0  0  0
  6  7  1  0  0  0  0
  7  8  2  0  0  0  0
  8  9  1  0  0  0  0
  9 10  2  0  0  0  0
 10 11  1  0  0  0  0
 11 12  1  0  0  0  0
 12 13  1  0  0  0  0
 13 14  1  0  0  0  0
 14 15  1  0  0  0  0
 15 16  1  0  0  0  0
 16 19  2  0  0  0  0
 16 21  1  0  0  0  0
 17 18  2  0  0  0  0
 17 20  1  0  0  0  0
 17 26  1  0  0  0  0
 18 19  1  0  0  0  0
 20 21  2  0  0  0  0
 20 25  1  0  0  0  0
 21 22  1  0  0  0  0
 22 23  2  0  0  0  0
 23 24  1  0  0  0  0
 24 25  2  0  0  0  0
  3 28  1  0  0  0  0
  6 29  1  0  0  0  0
  7 30  1  0  0  0  0
  8 31  1  0  0  0  0
  9 32  1  0  0  0  0
 11 33  1  0  0  0  0
 12 34  1  0  0  0  0
 12 35  1  0  0  0  0
 13 36  1  0  0  0  0
 13 37  1  0  0  0  0
 14 38  1  0  0  0  0
 14 39  1  0  0  0  0
 18 40  1  0  0  0  0
 19 41  1  0  0  0  0
 22 42  1  0  0  0  0
 23 43  1  0  0  0  0
 24 44  1  0  0  0  0
 25 45  1  0  0  0  0
M  END
> <r_user_dG.exp>
-8.6733813532598

$$$$
44
  -OEChem-05162309453D
 Structure written by MMmdl.
 45 48  0     1  0  0  0  0  0999 V2000
    3.5638  -47.8398    6.3294 O   0  0  0  0  0  0  0  0  0  0  0  0
    3.0055  -48.8795    6.7362 C   0  0  0  0  0  0  0  0  0  0  0  0
    3.6001  -49.7033    7.4706 O   0  0  0  0  0  0  0  0  0  0  0  0
    1.6002  -49.1348    6.3550 C   0  0  3  0  0  0  0  0  0  0  0  0
   -0.2707  -50.4496    6.3395 C   0  0  0  0  0  0  0  0  0  0  0  0
   -1.2446  -51.4534    6.4978 C   0  0  0  0  0  0  0  0  0  0  0  0
   -2.5290  -51.2642    5.9573 C   0  0  0  0  0  0  0  0  0  0  0  0
   -2.8264  -50.0751    5.2634 C   0  0  0  0  0  0  0  0  0  0  0  0
   -1.8457  -49.0732    5.1109 C   0  0  0  0  0  0  0  0  0  0  0  0
   -0.5465  -49.2371    5.6460 C   0  0  0  0  0  0  0  0  0  0  0  0
    0.6398  -48.4122    5.6803 C   0  0  0  0  0  0  0  0  0  0  0  0
    0.7658  -47.0204    5.1109 C   0  0  0  0  0  0  0  0  0  0  0  0
    0.8382  -45.9174    6.1894 C   0  0  0  0  0  0  0  0  0  0  0  0
   -0.2514  -46.0044    7.2636 C   0  0  0  0  0  0  0  0  0  0  0  0
   -1.5116  -45.6953    6.6849 O   0  0  0  0  0  0  0  0  0  0  0  0
   -2.6160  -45.6893    7.5101 C   0  0  0  0  0  0  0  0  0  0  0  0
   -4.9357  -45.6105    9.1489 C   0  0  0  0  0  0  0  0  0  0  0  0
   -3.7951  -46.3194    9.5617 C   0  0  0  0  0  0  0  0  0  0  0  0
   -2.6431  -46.3574    8.7572 C   0  0  0  0  0  0  0  0  0  0  0  0
   -4.9328  -44.9377    7.9019 C   0  0  0  0  0  0  0  0  0  0  0  0
   -3.7720  -44.9848    7.0812 C   0  0  0  0  0  0  0  0  0  0  0  0
   -3.7720  -44.3169    5.8386 C   0  0  0  0  0  0  0  0  0  0  0  0
   -4.9088  -43.6148    5.4042 C   0  0  0  0  0  0  0  0  0  0  0  0
   -6.0601  -43.5677    6.2105 C   0  0  0  0  0  0  0  0  0  0  0  0
   -6.0722  -44.2246    7.4561 C   0  0  0  0  0  0  0  0  0  0  0  0
   -6.3143  -45.5879   10.1970 Cl  0  0  0  0  0  0  0  0  0  0  0  0
    1.0415  -50.3407    6.7514 N   0  0  0  0  0  0  0  0  0  0  0  0
    4.4843  -49.3987    7.6378 H   0  0  0  0  0  0  0  0  0  0  0  0
    1.9319  -49.5904    5.4103 H   0  0  0  0  0  0  0  0  0  0  0  0
   -1.0072  -52.3624    7.0305 H   0  0  0  0  0  0  0  0  0  0  0  0
   -3.2842  -52.0274    6.0738 H   0  0  0  0  0  0  0  0  0  0  0  0
   -3.8116  -49.9297    4.8455 H   0  0  0  0  0  0  0  0  0  0  0  0
   -2.0904  -48.1667    4.5773 H   0  0  0  0  0  0  0  0  0  0  0  0
    1.6819  -46.9743    4.5038 H   0  0  0  0  0  0  0  0  0  0  0  0
   -0.1079  -46.8254    4.4717 H   0  0  0  0  0  0  0  0  0  0  0  0
    1.8169  -45.9872    6.6867 H   0  0  0  0  0  0  0  0  0  0  0  0
    0.7499  -44.9417    5.6891 H   0  0  0  0  0  0  0  0  0  0  0  0
   -0.2778  -47.0232    7.6776 H   0  0  0  0  0  0  0  0  0  0  0  0
   -0.0314  -45.2873    8.0682 H   0  0  0  0  0  0  0  0  0  0  0  0
   -3.8035  -46.8408   10.5075 H   0  0  0  0  0  0  0  0  0  0  0  0
   -1.7722  -46.9005    9.0934 H   0  0  0  0  0  0  0  0  0  0  0  0
   -2.8902  -44.3455    5.2156 H   0  0  0  0  0  0  0  0  0  0  0  0
   -4.8985  -43.1103    4.4493 H   0  0  0  0  0  0  0  0  0  0  0  0
   -6.9337  -43.0285    5.8749 H   0  0  0  0  0  0  0  0  0  0  0  0
   -6.9561  -44.1843    8.0754 H   0  0  0  0  0  0  0  0  0  0  0  0
  1  2  2  0  0  0  0
  2  3  1  0  0  0  0
  2  4  1  0  0  0  0
  4 11  1  0  0  0  0
  4 27  1  0  0  0  0
  5  6  1  0  0  0  0
  5 10  1  0  0  0  0
  5 27  2  0  0  0  0
  6  7  2  0  0  0  0
  7  8  1  0  0  0  0
  8  9  2  0  0  0  0
  9 10  1  0  0  0  0
 10 11  2  0  0  0  0
 11 12  1  0  0  0  0
 12 13  1  0  0  0  0
 13 14  1  0  0  0  0
 14 15  1  0  0  0  0
 15 16  1  0  0  0  0
 16 19  2  0  0  0  0
 16 21  1  0  0  0  0
 17 18  2  0  0  0  0
 17 20  1  0  0  0  0
 17 26  1  0  0  0  0
 18 19  1  0  0  0  0
 20 21  2  0  0  0  0
 20 25  1  0  0  0  0
 21 22  1  0  0  0  0
 22 23  2  0  0  0  0
 23 24  1  0  0  0  0
 24 25  2  0  0  0  0
  3 28  1  0  0  0  0
  4 29  1  0  0  0  0
  6 30  1  0  0  0  0
  7 31  1  0  0  0  0
  8 32  1  0  0  0  0
  9 33  1  0  0  0  0
 12 34  1  0  0  0  0
 12 35  1  0  0  0  0
 13 36  1  0  0  0  0
 13 37  1  0  0  0  0
 14 38  1  0  0  0  0
 14 39  1  0  0  0  0
 18 40  1  0  0  0  0
 19 41  1  0  0  0  0
 22 42  1  0  0  0  0
 23 43  1  0  0  0  0
 24 44  1  0  0  0  0
 25 45  1  0  0  0  0
M  END
> <r_user_dG.exp>
-8.6733813532598

$$$$
44
  -OEChem-05162309453D
 Structure written by MMmdl.
 45 48  0     1  0  0  0  0  0999 V2000
    3.5638  -47.8398    6.3294 O   0  0  0  0  0  0  0  0  0  0  0  0
    3.0055  -48.8795    6.7362 C   0  0  0  0  0  0  0  0  0  0  0  0
    3.6001  -49.7033    7.4706 O   0  0  0  0  0  0  0  0  0  0  0  0
    1.6002  -49.1348    6.3550 C   0  0  0  0  0  0  0  0  0  0  0  0
   -0.2707  -50.4496    6.3395 C   0  0  0  0  0  0  0  0  0  0  0  0
   -1.2446  -51.4534    6.4978 C   0  0  0  0  0  0  0  0  0  0  0  0
   -2.5290  -51.2642    5.9573 C   0  0  0  0  0  0  0  0  0  0  0  0
   -2.8264  -50.0751    5.2634 C   0  0  0  0  0  0  0  0  0  0  0  0
   -1.8457  -49.0732    5.1109 C   0  0  0  0  0  0  0  0  0  0  0  0
   -0.5465  -49.2371    5.6460 C   0  0  3  0  0  0  0  0  0  0  0  0
    0.6398  -48.4122    5.6803 C   0  0  0  0  0  0  0  0  0  0  0  0
    0.7658  -47.0204    5.1109 C   0  0  0  0  0  0  0  0  0  0  0  0
    0.8382  -45.9174    6.1894 C   0  0  0  0  0  0  0  0  0  0  0  0
   -0.2514  -46.0044    7.2636 C   0  0  0  0  0  0  0  0  0  0  0  0
   -1.5116  -45.6953    6.6849 O   0  0  0  0  0  0  0  0  0  0  0  0
   -2.6160  -45.6893    7.5101 C   0  0  0  0  0  0  0  0  0  0  0  0
   -4.9357  -45.6105    9.1489 C   0  0  0  0  0  0  0  0  0  0  0  0
   -3.7951  -46.3194    9.5617 C   0  0  0  0  0  0  0  0  0  0  0  0
   -2.6431  -46.3574    8.7572 C   0  0  0  0  0  0  0  0  0  0  0  0
   -4.9328  -44.9377    7.9019 C   0  0  0  0  0  0  0  0  0  0  0  0
   -3.7720  -44.9848    7.0812 C   0  0  0  0  0  0  0  0  0  0  0  0
   -3.7720  -44.3169    5.8386 C   0  0  0  0  0  0  0  0  0  0  0  0
   -4.9088  -43.6148    5.4042 C   0  0  0  0  0  0  0  0  0  0  0  0
   -6.0601  -43.5677    6.2105 C   0  0  0  0  0  0  0  0  0  0  0  0
   -6.0722  -44.2246    7.4561 C   0  0  0  0  0  0  0  0  0  0  0  0
   -6.3143  -45.5879   10.1970 Cl  0  0  0  0  0  0  0  0  0  0  0  0
    1.0415  -50.3407    6.7514 N   0  0  0  0  0  0  0  0  0  0  0  0
    4.4843  -49.3987    7.6378 H   0  0  0  0  0  0  0  0  0  0  0  0
   -1.0072  -52.3624    7.0305 H   0  0  0  0  0  0  0  0  0  0  0  0
   -3.2842  -52.0274    6.0738 H   0  0  0  0  0  0  0  0  0  0  0  0
   -3.8116  -49.9297    4.8455 H   0  0  0  0  0  0  0  0  0  0  0  0
   -2.0904  -48.1667    4.5773 H   0  0  0  0  0  0  0  0  0  0  0  0
   -0.2094  -49.6928    4.7033 H   0  0  0  0  0  0  0  0  0  0  0  0
    1.6819  -46.9743    4.5038 H   0  0  0  0  0  0  0  0  0  0  0  0
   -0.1079  -46.8254    4.4717 H   0  0  0  0  0  0  0  0  0  0  0  0
    1.8169  -45.9872    6.6867 H   0  0  0  0  0  0  0  0  0  0  0  0
    0.7499  -44.9417    5.6891 H   0  0  0  0  0  0  0  0  0  0  0  0
   -0.2778  -47.0232    7.6776 H   0  0  0  0  0  0  0  0  0  0  0  0
   -0.0314  -45.2873    8.0682 H   0  0  0  0  0  0  0  0  0  0  0  0
   -3.8035  -46.8408   10.5075 H   0  0  0  0  0  0  0  0  0  0  0  0
   -1.7722  -46.9005    9.0934 H   0  0  0  0  0  0  0  0  0  0  0  0
   -2.8902  -44.3455    5.2156 H   0  0  0  0  0  0  0  0  0  0  0  0
   -4.8985  -43.1103    4.4493 H   0  0  0  0  0  0  0  0  0  0  0  0
   -6.9337  -43.0285    5.8749 H   0  0  0  0  0  0  0  0  0  0  0  0
   -6.9561  -44.1843    8.0754 H   0  0  0  0  0  0  0  0  0  0  0  0
  1  2  2  0  0  0  0
  2  3  1  0  0  0  0
  2  4  1  0  0  0  0
  4 11  2  0  0  0  0
  4 27  1  0  0  0  0
  5  6  1  0  0  0  0
  5 10  1  0  0  0  0
  5 27  2  0  0  0  0
  6  7  2  0  0  0  0
  7  8  1  0  0  0  0
  8  9  2  0  0  0  0
  9 10  1  0  0  0  0
 10 11  1  0  0  0  0
 11 12  1  0  0  0  0
 12 13  1  0  0  0  0
 13 14  1  0  0  0  0
 14 15  1  0  0  0  0
 15 16  1  0  0  0  0
 16 19  2  0  0  0  0
 16 21  1  0  0  0  0
 17 18  2  0  0  0  0
 17 20  1  0  0  0  0
 17 26  1  0  0  0  0
 18 19  1  0  0  0  0
 20 21  2  0  0  0  0
 20 25  1  0  0  0  0
 21 22  1  0  0  0  0
 22 23  2  0  0  0  0
 23 24  1  0  0  0  0
 24 25  2  0  0  0  0
  3 28  1  0  0  0  0
  6 29  1  0  0  0  0
  7 30  1  0  0  0  0
  8 31  1  0  0  0  0
  9 32  1  0  0  0  0
 10 33  1  0  0  0  0
 12 34  1  0  0  0  0
 12 35  1  0  0  0  0
 13 36  1  0  0  0  0
 13 37  1  0  0  0  0
 14 38  1  0  0  0  0
 14 39  1  0  0  0  0
 18 40  1  0  0  0  0
 19 41  1  0  0  0  0
 22 42  1  0  0  0  0
 23 43  1  0  0  0  0
 24 44  1  0  0  0  0
 25 45  1  0  0  0  0
M  END
> <r_user_dG.exp>
-8.6733813532598

$$$$
44
  -OEChem-05162309453D
 Structure written by MMmdl.
 45 48  0     1  0  0  0  0  0999 V2000
    3.5638  -47.8398    6.3294 O   0  0  0  0  0  0  0  0  0  0  0  0
    3.0055  -48.8795    6.7362 C   0  0  0  0  0  0  0  0  0  0  0  0
    3.6001  -49.7033    7.4706 O   0  0  0  0  0  0  0  0  0  0  0  0
    1.6002  -49.1348    6.3550 C   0  0  0  0  0  0  0  0  0  0  0  0
   -0.2707  -50.4496    6.3395 C   0  0  3  0  0  0  0  0  0  0  0  0
   -1.2446  -51.4534    6.4978 C   0  0  0  0  0  0  0  0  0  0  0  0
   -2.5290  -51.2642    5.9573 C   0  0  0  0  0  0  0  0  0  0  0  0
   -2.8264  -50.0751    5.2634 C   0  0  0  0  0  0  0  0  0  0  0  0
   -1.8457  -49.0732    5.1109 C   0  0  0  0  0  0  0  0  0  0  0  0
   -0.5465  -49.2371    5.6460 C   0  0  0  0  0  0  0  0  0  0  0  0
    0.6398  -48.4122    5.6803 C   0  0  0  0  0  0  0  0  0  0  0  0
    0.7658  -47.0204    5.1109 C   0  0  0  0  0  0  0  0  0  0  0  0
    0.8382  -45.9174    6.1894 C   0  0  0  0  0  0  0  0  0  0  0  0
   -0.2514  -46.0044    7.2636 C   0  0  0  0  0  0  0  0  0  0  0  0
   -1.5116  -45.6953    6.6849 O   0  0  0  0  0  0  0  0  0  0  0  0
   -2.6160  -45.6893    7.5101 C   0  0  0  0  0  0  0  0  0  0  0  0
   -4.9357  -45.6105    9.1489 C   0  0  0  0  0  0  0  0  0  0  0  0
   -3.7951  -46.3194    9.5617 C   0  0  0  0  0  0  0  0  0  0  0  0
   -2.6431  -46.3574    8.7572 C   0  0  0  0  0  0  0  0  0  0  0  0
   -4.9328  -44.9377    7.9019 C   0  0  0  0  0  0  0  0  0  0  0  0
   -3.7720  -44.9848    7.0812 C   0  0  0  0  0  0  0  0  0  0  0  0
   -3.7720  -44.3169    5.8386 C   0  0  0  0  0  0  0  0  0  0  0  0
   -4.9088  -43.6148    5.4042 C   0  0  0  0  0  0  0  0  0  0  0  0
   -6.0601  -43.5677    6.2105 C   0  0  0  0  0  0  0  0  0  0  0  0
   -6.0722  -44.2246    7.4561 C   0  0  0  0  0  0  0  0  0  0  0  0
   -6.3143  -45.5879   10.1970 Cl  0  0  0  0  0  0  0  0  0  0  0  0
    1.0415  -50.3407    6.7514 N   0  0  0  0  0  0  0  0  0  0  0  0
    4.4843  -49.3987    7.6378 H   0  0  0  0  0  0  0  0  0  0  0  0
    0.0602  -50.9151    5.3994 H   0  0  0  0  0  0  0  0  0  0  0  0
   -1.0072  -52.3624    7.0305 H   0  0  0  0  0  0  0  0  0  0  0  0
   -3.2842  -52.0274    6.0738 H   0  0  0  0  0  0  0  0  0  0  0  0
   -3.8116  -49.9297    4.8455 H   0  0  0  0  0  0  0  0  0  0  0  0
   -2.0904  -48.1667    4.5773 H   0  0  0  0  0  0  0  0  0  0  0  0
    1.6819  -46.9743    4.5038 H   0  0  0  0  0  0  0  0  0  0  0  0
   -0.1079  -46.8254    4.4717 H   0  0  0  0  0  0  0  0  0  0  0  0
    1.8169  -45.9872    6.6867 H   0  0  0  0  0  0  0  0  0  0  0  0
    0.7499  -44.9417    5.6891 H   0  0  0  0  0  0  0  0  0  0  0  0
   -0.2778  -47.0232    7.6776 H   0  0  0  0  0  0  0  0  0  0  0  0
   -0.0314  -45.2873    8.0682 H   0  0  0  0  0  0  0  0  0  0  0  0
   -3.8035  -46.8408   10.5075 H   0  0  0  0  0  0  0  0  0  0  0  0
   -1.7722  -46.9005    9.0934 H   0  0  0  0  0  0  0  0  0  0  0  0
   -2.8902  -44.3455    5.2156 H   0  0  0  0  0  0  0  0  0  0  0  0
   -4.8985  -43.1103    4.4493 H   0  0  0  0  0  0  0  0  0  0  0  0
   -6.9337  -43.0285    5.8749 H   0  0  0  0  0  0  0  0  0  0  0  0
   -6.9561  -44.1843    8.0754 H   0  0  0  0  0  0  0  0  0  0  0  0
  1  2  2  0  0  0  0
  2  3  1  0  0  0  0
  2  4  1  0  0  0  0
  4 11  1  0  0  0  0
  4 27  2  0  0  0  0
  5  6  1  0  0  0  0
  5 10  1  0  0  0  0
  5 27  1  0  0  0  0
  6  7  2  0  0  0  0
  7  8  1  0  0  0  0
  8  9  2  0  0  0  0
  9 10  1  0  0  0  0
 10 11  2  0  0  0  0
 11 12  1  0  0  0  0
 12 13  1  0  0  0  0
 13 14  1  0  0  0  0
 14 15  1  0  0  0  0
 15 16  1  0  0  0  0
 16 19  2  0  0  0  0
 16 21  1  0  0  0  0
 17 18  2  0  0  0  0
 17 20  1  0  0  0  0
 17 26  1  0  0  0  0
 18 19  1  0  0  0  0
 20 21  2  0  0  0  0
 20 25  1  0  0  0  0
 21 22  1  0  0  0  0
 22 23  2  0  0  0  0
 23 24  1  0  0  0  0
 24 25  2  0  0  0  0
  3 28  1  0  0  0  0
  5 29  1  0  0  0  0
  6 30  1  0  0  0  0
  7 31  1  0  0  0  0
  8 32  1  0  0  0  0
  9 33  1  0  0  0  0
 12 34  1  0  0  0  0
 12 35  1  0  0  0  0
 13 36  1  0  0  0  0
 13 37  1  0  0  0  0
 14 38  1  0  0  0  0
 14 39  1  0  0  0  0
 18 40  1  0  0  0  0
 19 41  1  0  0  0  0
 22 42  1  0  0  0  0
 23 43  1  0  0  0  0
 24 44  1  0  0  0  0
 25 45  1  0  0  0  0
M  END
> <r_user_dG.exp>
-8.6733813532598

$$$$
44
  -OEChem-05162309453D
 Structure written by MMmdl.
 45 48  0     0  0  0  0  0  0999 V2000
    3.5638  -47.8398    6.3294 O   0  0  0  0  0  0  0  0  0  0  0  0
    3.0055  -48.8795    6.7362 C   0  0  0  0  0  0  0  0  0  0  0  0
    3.6001  -49.7033    7.4706 O   0  0  0  0  0  0  0  0  0  0  0  0
    1.6002  -49.1348    6.3550 C   0  0  0  0  0  0  0  0  0  0  0  0
   -0.2707  -50.4496    6.3395 C   0  0  0  0  0  0  0  0  0  0  0  0
   -1.2446  -51.4534    6.4978 C   0  0  0  0  0  0  0  0  0  0  0  0
   -2.5290  -51.2642    5.9573 C   0  0  0  0  0  0  0  0  0  0  0  0
   -2.8264  -50.0751    5.2634 C   0  0  0  0  0  0  0  0  0  0  0  0
   -1.8457  -49.0732    5.1109 C   0  0  0  0  0  0  0  0  0  0  0  0
   -0.5465  -49.2371    5.6460 C   0  0  0  0  0  0  0  0  0  0  0  0
    0.6398  -48.4122    5.6803 C   0  0  0  0  0  0  0  0  0  0  0  0
    0.7658  -47.0204    5.1109 C   0  0  0  0  0  0  0  0  0  0  0  0
    0.8382  -45.9174    6.1894 C   0  0  0  0  0  0  0  0  0  0  0  0
   -0.2514  -46.0044    7.2636 C   0  0  0  0  0  0  0  0  0  0  0  0
   -1.5116  -45.6953    6.6849 O   0  0  0  0  0  0  0  0  0  0  0  0
   -2.6160  -45.6893    7.5101 C   0  0  0  0  0  0  0  0  0  0  0  0
   -4.9357  -45.6105    9.1489 C   0  0  0  0  0  0  0  0  0  0  0  0
   -3.7951  -46.3194    9.5617 C   0  0  0  0  0  0  0  0  0  0  0  0
   -2.6431  -46.3574    8.7572 C   0  0  0  0  0  0  0  0  0  0  0  0
   -4.9328  -44.9377    7.9019 C   0  0  0  0  0  0  0  0  0  0  0  0
   -3.7720  -44.9848    7.0812 C   0  0  0  0  0  0  0  0  0  0  0  0
   -3.7720  -44.3169    5.8386 C   0  0  0  0  0  0  0  0  0  0  0  0
   -4.9088  -43.6148    5.4042 C   0  0  0  0  0  0  0  0  0  0  0  0
   -6.0601  -43.5677    6.2105 C   0  0  0  0  0  0  0  0  0  0  0  0
   -6.0722  -44.2246    7.4561 C   0  0  0  0  0  0  0  0  0  0  0  0
   -6.3143  -45.5879   10.1970 Cl  0  0  0  0  0  0  0  0  0  0  0  0
    1.0415  -50.3407    6.7514 N   0  0  0  0  0  0  0  0  0  0  0  0
    4.4843  -49.3987    7.6378 H   0  0  0  0  0  0  0  0  0  0  0  0
   -1.0072  -52.3624    7.0305 H   0  0  0  0  0  0  0  0  0  0  0  0
   -3.2842  -52.0274    6.0738 H   0  0  0  0  0  0  0  0  0  0  0  0
   -3.1363  -50.3702    4.2500 H   0  0  0  0  0  0  0  0  0  0  0  0
   -3.6752  -49.6090    5.7853 H   0  0  0  0  0  0  0  0  0  0  0  0
   -2.0904  -48.1667    4.5773 H   0  0  0  0  0  0  0  0  0  0  0  0
    1.6819  -46.9743    4.5038 H   0  0  0  0  0  0  0  0  0  0  0  0
   -0.1079  -46.8254    4.4717 H   0  0  0  0  0  0  0  0  0  0  0  0
    1.8169  -45.9872    6.6867 H   0  0  0  0  0  0  0  0  0  0  0  0
    0.7499  -44.9417    5.6891 H   0  0  0  0  0  0  0  0  0  0  0  0
   -0.2778  -47.0232    7.6776 H   0  0  0  0  0  0  0  0  0  0  0  0
   -0.0314  -45.2873    8.0682 H   0  0  0  0  0  0  0  0  0  0  0  0
   -3.8035  -46.8408   10.5075 H   0  0  0  0  0  0  0  0  0  0  0  0
   -1.7722  -46.9005    9.0934 H   0  0  0  0  0  0  0  0  0  0  0  0
   -2.8902  -44.3455    5.2156 H   0  0  0  0  0  0  0  0  0  0  0  0
   -4.8985  -43.1103    4.4493 H   0  0  0  0  0  0  0  0  0  0  0  0
   -6.9337  -43.0285    5.8749 H   0  0  0  0  0  0  0  0  0  0  0  0
   -6.9561  -44.1843    8.0754 H   0  0  0  0  0  0  0  0  0  0  0  0
  1  2  2  0  0  0  0
  2  3  1  0  0  0  0
  2  4  1  0  0  0  0
  4 11  2  0  0  0  0
  4 27  1  0  0  0  0
  5  6  1  0  0  0  0
  5 10  1  0  0  0  0
  5 27  2  0  0  0  0
  6  7  2  0  0  0  0
  7  8  1  0  0  0  0
  8  9  1  0  0  0  0
  9 10  2  0  0  0  0
 10 11  1  0  0  0  0
 11 12  1  0  0  0  0
 12 13  1  0  0  0  0
 13 14  1  0  0  0  0
 14 15  1  0  0  0  0
 15 16  1  0  0  0  0
 16 19  2  0  0  0  0
 16 21  1  0  0  0  0
 17 18  2  0  0  0  0
 17 20  1  0  0  0  0
 17 26  1  0  0  0  0
 18 19  1  0  0  0  0
 20 21  2  0  0  0  0
 20 25  1  0  0  0  0
 21 22  1  0  0  0  0
 22 23  2  0  0  0  0
 23 24  1  0  0  0  0
 24 25  2  0  0  0  0
  3 28  1  0  0  0  0
  6 29  1  0  0  0  0
  7 30  1  0  0  0  0
  8 31  1  0  0  0  0
  8 32  1  0  0  0  0
  9 33  1  0  0  0  0
 12 34  1  0  0  0  0
 12 35  1  0  0  0  0
 13 36  1  0  0  0  0
 13 37  1  0  0  0  0
 14 38  1  0  0  0  0
 14 39  1  0  0  0  0
 18 40  1  0  0  0  0
 19 41  1  0  0  0  0
 22 42  1  0  0  0  0
 23 43  1  0  0  0  0
 24 44  1  0  0  0  0
 25 45  1  0  0  0  0
M  END
> <r_user_dG.exp>
-8.6733813532598

$$$$
44
  -OEChem-05162309453D
 Structure written by MMmdl.
 45 48  0     0  0  0  0  0  0999 V2000
    3.5638  -47.8398    6.3294 O   0  0  0  0  0  0  0  0  0  0  0  0
    3.0055  -48.8795    6.7362 C   0  0  0  0  0  0  0  0  0  0  0  0
    3.6001  -49.7033    7.4706 O   0  0  0  0  0  0  0  0  0  0  0  0
    1.6002  -49.1348    6.3550 C   0  0  0  0  0  0  0  0  0  0  0  0
   -0.2707  -50.4496    6.3395 C   0  0  0  0  0  0  0  0  0  0  0  0
   -1.2446  -51.4534    6.4978 C   0  0  0  0  0  0  0  0  0  0  0  0
   -2.5290  -51.2642    5.9573 C   0  0  0  0  0  0  0  0  0  0  0  0
   -2.8264  -50.0751    5.2634 C   0  0  0  0  0  0  0  0  0  0  0  0
   -1.8457  -49.0732    5.1109 C   0  0  0  0  0  0  0  0  0  0  0  0
   -0.5465  -49.2371    5.6460 C   0  0  0  0  0  0  0  0  0  0  0  0
    0.6398  -48.4122    5.6803 C   0  0  0  0  0  0  0  0  0  0  0  0
    0.7658  -47.0204    5.1109 C   0  0  0  0  0  0  0  0  0  0  0  0
    0.8382  -45.9174    6.1894 C   0  0  0  0  0  0  0  0  0  0  0  0
   -0.2514  -46.0044    7.2636 C   0  0  0  0  0  0  0  0  0  0  0  0
   -1.5116  -45.6953    6.6849 O   0  0  0  0  0  0  0  0  0  0  0  0
   -2.6160  -45.6893    7.5101 C   0  0  0  0  0  0  0  0  0  0  0  0
   -4.9357  -45.6105    9.1489 C   0  0  0  0  0  0  0  0  0  0  0  0
   -3.7951  -46.3194    9.5617 C   0  0  0  0  0  0  0  0  0  0  0  0
   -2.6431  -46.3574    8.7572 C   0  0  0  0  0  0  0  0  0  0  0  0
   -4.9328  -44.9377    7.9019 C   0  0  0  0  0  0  0  0  0  0  0  0
   -3.7720  -44.9848    7.0812 C   0  0  0  0  0  0  0  0  0  0  0  0
   -3.7720  -44.3169    5.8386 C   0  0  0  0  0  0  0  0  0  0  0  0
   -4.9088  -43.6148    5.4042 C   0  0  0  0  0  0  0  0  0  0  0  0
   -6.0601  -43.5677    6.2105 C   0  0  0  0  0  0  0  0  0  0  0  0
   -6.0722  -44.2246    7.4561 C   0  0  0  0  0  0  0  0  0  0  0  0
   -6.3143  -45.5879   10.1970 Cl  0  0  0  0  0  0  0  0  0  0  0  0
    1.0415  -50.3407    6.7514 N   0  0  0  0  0  0  0  0  0  0  0  0
    4.4843  -49.3987    7.6378 H   0  0  0  0  0  0  0  0  0  0  0  0
   -1.0072  -52.3624    7.0305 H   0  0  0  0  0  0  0  0  0  0  0  0
   -2.7061  -52.0944    5.2577 H   0  0  0  0  0  0  0  0  0  0  0  0
   -3.2401  -51.3316    6.7938 H   0  0  0  0  0  0  0  0  0  0  0  0
   -3.8116  -49.9297    4.8455 H   0  0  0  0  0  0  0  0  0  0  0  0
   -2.0904  -48.1667    4.5773 H   0  0  0  0  0  0  0  0  0  0  0  0
    1.6819  -46.9743    4.5038 H   0  0  0  0  0  0  0  0  0  0  0  0
   -0.1079  -46.8254    4.4717 H   0  0  0  0  0  0  0  0  0  0  0  0
    1.8169  -45.9872    6.6867 H   0  0  0  0  0  0  0  0  0  0  0  0
    0.7499  -44.9417    5.6891 H   0  0  0  0  0  0  0  0  0  0  0  0
   -0.2778  -47.0232    7.6776 H   0  0  0  0  0  0  0  0  0  0  0  0
   -0.0314  -45.2873    8.0682 H   0  0  0  0  0  0  0  0  0  0  0  0
   -3.8035  -46.8408   10.5075 H   0  0  0  0  0  0  0  0  0  0  0  0
   -1.7722  -46.9005    9.0934 H   0  0  0  0  0  0  0  0  0  0  0  0
   -2.8902  -44.3455    5.2156 H   0  0  0  0  0  0  0  0  0  0  0  0
   -4.8985  -43.1103    4.4493 H   0  0  0  0  0  0  0  0  0  0  0  0
   -6.9337  -43.0285    5.8749 H   0  0  0  0  0  0  0  0  0  0  0  0
   -6.9561  -44.1843    8.0754 H   0  0  0  0  0  0  0  0  0  0  0  0
  1  2  2  0  0  0  0
  2  3  1  0  0  0  0
  2  4  1  0  0  0  0
  4 11  1  0  0  0  0
  4 27  2  0  0  0  0
  5  6  2  0  0  0  0
  5 10  1  0  0  0  0
  5 27  1  0  0  0  0
  6  7  1  0  0  0  0
  7  8  1  0  0  0  0
  8  9  2  0  0  0  0
  9 10  1  0  0  0  0
 10 11  2  0  0  0  0
 11 12  1  0  0  0  0
 12 13  1  0  0  0  0
 13 14  1  0  0  0  0
 14 15  1  0  0  0  0
 15 16  1  0  0  0  0
 16 19  2  0  0  0  0
 16 21  1  0  0  0  0
 17 18  2  0  0  0  0
 17 20  1  0  0  0  0
 17 26  1  0  0  0  0
 18 19  1  0  0  0  0
 20 21  2  0  0  0  0
 20 25  1  0  0  0  0
 21 22  1  0  0  0  0
 22 23  2  0  0  0  0
 23 24  1  0  0  0  0
 24 25  2  0  0  0  0
  3 28  1  0  0  0  0
  6 29  1  0  0  0  0
  7 30  1  0  0  0  0
  7 31  1  0  0  0  0
  8 32  1  0  0  0  0
  9 33  1  0  0  0  0
 12 34  1  0  0  0  0
 12 35  1  0  0  0  0
 13 36  1  0  0  0  0
 13 37  1  0  0  0  0
 14 38  1  0  0  0  0
 14 39  1  0  0  0  0
 18 40  1  0  0  0  0
 19 41  1  0  0  0  0
 22 42  1  0  0  0  0
 23 43  1  0  0  0  0
 24 44  1  0  0  0  0
 25 45  1  0  0  0  0
M  END
> <r_user_dG.exp>
-8.6733813532598

$$$$
44
  -OEChem-05162309453D
 Structure written by MMmdl.
 45 48  0     0  0  0  0  0  0999 V2000
    3.5638  -47.8398    6.3294 O   0  0  0  0  0  0  0  0  0  0  0  0
    3.0055  -48.8795    6.7362 C   0  0  0  0  0  0  0  0  0  0  0  0
    3.6001  -49.7033    7.4706 O   0  0  0  0  0  0  0  0  0  0  0  0
    1.6002  -49.1348    6.3550 C   0  0  0  0  0  0  0  0  0  0  0  0
   -0.2707  -50.4496    6.3395 C   0  0  0  0  0  0  0  0  0  0  0  0
   -1.2446  -51.4534    6.4978 C   0  0  0  0  0  0  0  0  0  0  0  0
   -2.5290  -51.2642    5.9573 C   0  0  0  0  0  0  0  0  0  0  0  0
   -2.8264  -50.0751    5.2634 C   0  0  0  0  0  0  0  0  0  0  0  0
   -1.8457  -49.0732    5.1109 C   0  0  0  0  0  0  0  0  0  0  0  0
   -0.5465  -49.2371    5.6460 C   0  0  0  0  0  0  0  0  0  0  0  0
    0.6398  -48.4122    5.6803 C   0  0  0  0  0  0  0  0  0  0  0  0
    0.7658  -47.0204    5.1109 C   0  0  0  0  0  0  0  0  0  0  0  0
    0.8382  -45.9174    6.1894 C   0  0  0  0  0  0  0  0  0  0  0  0
   -0.2514  -46.0044    7.2636 C   0  0  0  0  0  0  0  0  0  0  0  0
   -1.5116  -45.6953    6.6849 O   0  0  0  0  0  0  0  0  0  0  0  0
   -2.6160  -45.6893    7.5101 C   0  0  0  0  0  0  0  0  0  0  0  0
   -4.9357  -45.6105    9.1489 C   0  0  0  0  0  0  0  0  0  0  0  0
   -3.7951  -46.3194    9.5617 C   0  0  0  0  0  0  0  0  0  0  0  0
   -2.6431  -46.3574    8.7572 C   0  0  0  0  0  0  0  0  0  0  0  0
   -4.9328  -44.9377    7.9019 C   0  0  0  0  0  0  0  0  0  0  0  0
   -3.7720  -44.9848    7.0812 C   0  0  0  0  0  0  0  0  0  0  0  0
   -3.7720  -44.3169    5.8386 C   0  0  0  0  0  0  0  0  0  0  0  0
   -4.9088  -43.6148    5.4042 C   0  0  0  0  0  0  0  0  0  0  0  0
   -6.0601  -43.5677    6.2105 C   0  0  0  0  0  0  0  0  0  0  0  0
   -6.0722  -44.2246    7.4561 C   0  0  0  0  0  0  0  0  0  0  0  0
   -6.3143  -45.5879   10.1970 Cl  0  0  0  0  0  0  0  0  0  0  0  0
    1.0415  -50.3407    6.7514 N   0  0  0  0  0  0  0  0  0  0  0  0
    4.4843  -49.3987    7.6378 H   0  0  0  0  0  0  0  0  0  0  0  0
   -0.8377  -52.3684    6.0427 H   0  0  0  0  0  0  0  0  0  0  0  0
   -1.3723  -51.6074    7.5795 H   0  0  0  0  0  0  0  0  0  0  0  0
   -3.2842  -52.0274    6.0738 H   0  0  0  0  0  0  0  0  0  0  0  0
   -3.8116  -49.9297    4.8455 H   0  0  0  0  0  0  0  0  0  0  0  0
   -2.0904  -48.1667    4.5773 H   0  0  0  0  0  0  0  0  0  0  0  0
    1.6819  -46.9743    4.5038 H   0  0  0  0  0  0  0  0  0  0  0  0
   -0.1079  -46.8254    4.4717 H   0  0  0  0  0  0  0  0  0  0  0  0
    1.8169  -45.9872    6.6867 H   0  0  0  0  0  0  0  0  0  0  0  0
    0.7499  -44.9417    5.6891 H   0  0  0  0  0  0  0  0  0  0  0  0
   -0.2778  -47.0232    7.6776 H   0  0  0  0  0  0  0  0  0  0  0  0
   -0.0314  -45.2873    8.0682 H   0  0  0  0  0  0  0  0  0  0  0  0
   -3.8035  -46.8408   10.5075 H   0  0  0  0  0  0  0  0  0  0  0  0
   -1.7722  -46.9005    9.0934 H   0  0  0  0  0  0  0  0  0  0  0  0
   -2.8902  -44.3455    5.2156 H   0  0  0  0  0  0  0  0  0  0  0  0
   -4.8985  -43.1103    4.4493 H   0  0  0  0  0  0  0  0  0  0  0  0
   -6.9337  -43.0285    5.8749 H   0  0  0  0  0  0  0  0  0  0  0  0
   -6.9561  -44.1843    8.0754 H   0  0  0  0  0  0  0  0  0  0  0  0
  1  2  2  0  0  0  0
  2  3  1  0  0  0  0
  2  4  1  0  0  0  0
  4 11  2  0  0  0  0
  4 27  1  0  0  0  0
  5  6  1  0  0  0  0
  5 10  1  0  0  0  0
  5 27  2  0  0  0  0
  6  7  1  0  0  0  0
  7  8  2  0  0  0  0
  8  9  1  0  0  0  0
  9 10  2  0  0  0  0
 10 11  1  0  0  0  0
 11 12  1  0  0  0  0
 12 13  1  0  0  0  0
 13 14  1  0  0  0  0
 14 15  1  0  0  0  0
 15 16  1  0  0  0  0
 16 19  2  0  0  0  0
 16 21  1  0  0  0  0
 17 18  2  0  0  0  0
 17 20  1  0  0  0  0
 17 26  1  0  0  0  0
 18 19  1  0  0  0  0
 20 21  2  0  0  0  0
 20 25  1  0  0  0  0
 21 22  1  0  0  0  0
 22 23  2  0  0  0  0
 23 24  1  0  0  0  0
 24 25  2  0  0  0  0
  3 28  1  0  0  0  0
  6 29  1  0  0  0  0
  6 30  1  0  0  0  0
  7 31  1  0  0  0  0
  8 32  1  0  0  0  0
  9 33  1  0  0  0  0
 12 34  1  0  0  0  0
 12 35  1  0  0  0  0
 13 36  1  0  0  0  0
 13 37  1  0  0  0  0
 14 38  1  0  0  0  0
 14 39  1  0  0  0  0
 18 40  1  0  0  0  0
 19 41  1  0  0  0  0
 22 42  1  0  0  0  0
 23 43  1  0  0  0  0
 24 44  1  0  0  0  0
 25 45  1  0  0  0  0
M  END
> <r_user_dG.exp>
-8.6733813532598

$$$$
44
  -OEChem-05162309453D
 Structure written by MMmdl.
 45 48  0     0  0  0  0  0  0999 V2000
    3.5638  -47.8398    6.3294 O   0  0  0  0  0  0  0  0  0  0  0  0
    3.0055  -48.8795    6.7362 C   0  0  0  0  0  0  0  0  0  0  0  0
    3.6001  -49.7033    7.4706 O   0  0  0  0  0  0  0  0  0  0  0  0
    1.6002  -49.1348    6.3550 C   0  0  0  0  0  0  0  0  0  0  0  0
   -0.2707  -50.4496    6.3395 C   0  0  0  0  0  0  0  0  0  0  0  0
   -1.2446  -51.4534    6.4978 C   0  0  0  0  0  0  0  0  0  0  0  0
   -2.5290  -51.2642    5.9573 C   0  0  0  0  0  0  0  0  0  0  0  0
   -2.8264  -50.0751    5.2634 C   0  0  0  0  0  0  0  0  0  0  0  0
   -1.8457  -49.0732    5.1109 C   0  0  0  0  0  0  0  0  0  0  0  0
   -0.5465  -49.2371    5.6460 C   0  0  0  0  0  0  0  0  0  0  0  0
    0.6398  -48.4122    5.6803 C   0  0  0  0  0  0  0  0  0  0  0  0
    0.7658  -47.0204    5.1109 C   0  0  0  0  0  0  0  0  0  0  0  0
    0.8382  -45.9174    6.1894 C   0  0  0  0  0  0  0  0  0  0  0  0
   -0.2514  -46.0044    7.2636 C   0  0  0  0  0  0  0  0  0  0  0  0
   -1.5116  -45.6953    6.6849 O   0  0  0  0  0  0  0  0  0  0  0  0
   -2.6160  -45.6893    7.5101 C   0  0  0  0  0  0  0  0  0  0  0  0
   -4.9357  -45.6105    9.1489 C   0  0  0  0  0  0  0  0  0  0  0  0
   -3.7951  -46.3194    9.5617 C   0  0  0  0  0  0  0  0  0  0  0  0
   -2.6431  -46.3574    8.7572 C   0  0  0  0  0  0  0  0  0  0  0  0
   -4.9328  -44.9377    7.9019 C   0  0  0  0  0  0  0  0  0  0  0  0
   -3.7720  -44.9848    7.0812 C   0  0  0  0  0  0  0  0  0  0  0  0
   -3.7720  -44.3169    5.8386 C   0  0  0  0  0  0  0  0  0  0  0  0
   -4.9088  -43.6148    5.4042 C   0  0  0  0  0  0  0  0  0  0  0  0
   -6.0601  -43.5677    6.2105 C   0  0  0  0  0  0  0  0  0  0  0  0
   -6.0722  -44.2246    7.4561 C   0  0  0  0  0  0  0  0  0  0  0  0
   -6.3143  -45.5879   10.1970 Cl  0  0  0  0  0  0  0  0  0  0  0  0
    1.0415  -50.3407    6.7514 N   0  0  0  0  0  0  0  0  0  0  0  0
    4.4843  -49.3987    7.6378 H   0  0  0  0  0  0  0  0  0  0  0  0
   -1.0072  -52.3624    7.0305 H   0  0  0  0  0  0  0  0  0  0  0  0
   -3.2842  -52.0274    6.0738 H   0  0  0  0  0  0  0  0  0  0  0  0
   -3.8116  -49.9297    4.8455 H   0  0  0  0  0  0  0  0  0  0  0  0
   -1.7210  -48.9199    4.0288 H   0  0  0  0  0  0  0  0  0  0  0  0
   -2.2581  -48.1603    5.5654 H   0  0  0  0  0  0  0  0  0  0  0  0
    1.6819  -46.9743    4.5038 H   0  0  0  0  0  0  0  0  0  0  0  0
   -0.1079  -46.8254    4.4717 H   0  0  0  0  0  0  0  0  0  0  0  0
    1.8169  -45.9872    6.6867 H   0  0  0  0  0  0  0  0  0  0  0  0
    0.7499  -44.9417    5.6891 H   0  0  0  0  0  0  0  0  0  0  0  0
   -0.2778  -47.0232    7.6776 H   0  0  0  0  0  0  0  0  0  0  0  0
   -0.0314  -45.2873    8.0682 H   0  0  0  0  0  0  0  0  0  0  0  0
   -3.8035  -46.8408   10.5075 H   0  0  0  0  0  0  0  0  0  0  0  0
   -1.7722  -46.9005    9.0934 H   0  0  0  0  0  0  0  0  0  0  0  0
   -2.8902  -44.3455    5.2156 H   0  0  0  0  0  0  0  0  0  0  0  0
   -4.8985  -43.1103    4.4493 H   0  0  0  0  0  0  0  0  0  0  0  0
   -6.9337  -43.0285    5.8749 H   0  0  0  0  0  0  0  0  0  0  0  0
   -6.9561  -44.1843    8.0754 H   0  0  0  0  0  0  0  0  0  0  0  0
  1  2  2  0  0  0  0
  2  3  1  0  0  0  0
  2  4  1  0  0  0  0
  4 11  1  0  0  0  0
  4 27  2  0  0  0  0
  5  6  2  0  0  0  0
  5 10  1  0  0  0  0
  5 27  1  0  0  0  0
  6  7  1  0  0  0  0
  7  8  2  0  0  0  0
  8  9  1  0  0  0  0
  9 10  1  0  0  0  0
 10 11  2  0  0  0  0
 11 12  1  0  0  0  0
 12 13  1  0  0  0  0
 13 14  1  0  0  0  0
 14 15  1  0  0  0  0
 15 16  1  0  0  0  0
 16 19  2  0  0  0  0
 16 21  1  0  0  0  0
 17 18  2  0  0  0  0
 17 20  1  0  0  0  0
 17 26  1  0  0  0  0
 18 19  1  0  0  0  0
 20 21  2  0  0  0  0
 20 25  1  0  0  0  0
 21 22  1  0  0  0  0
 22 23  2  0  0  0  0
 23 24  1  0  0  0  0
 24 25  2  0  0  0  0
  3 28  1  0  0  0  0
  6 29  1  0  0  0  0
  7 30  1  0  0  0  0
  8 31  1  0  0  0  0
  9 32  1  0  0  0  0
  9 33  1  0  0  0  0
 12 34  1  0  0  0  0
 12 35  1  0  0  0  0
 13 36  1  0  0  0  0
 13 37  1  0  0  0  0
 14 38  1  0  0  0  0
 14 39  1  0  0  0  0
 18 40  1  0  0  0  0
 19 41  1  0  0  0  0
 22 42  1  0  0  0  0
 23 43  1  0  0  0  0
 24 44  1  0  0  0  0
 25 45  1  0  0  0  0
M  END
> <r_user_dG.exp>
-8.6733813532598

$$$$
44
  -OEChem-05162309453D
 Structure written by MMmdl.
 45 48  0     0  0  0  0  0  0999 V2000
    3.5638  -47.8398    6.3294 O   0  0  0  0  0  0  0  0  0  0  0  0
    3.0055  -48.8795    6.7362 C   0  0  0  0  0  0  0  0  0  0  0  0
    3.6001  -49.7033    7.4706 O   0  0  0  0  0  0  0  0  0  0  0  0
    1.6002  -49.1348    6.3550 C   0  0  0  0  0  0  0  0  0  0  0  0
   -0.2707  -50.4496    6.3395 C   0  0  0  0  0  0  0  0  0  0  0  0
   -1.2446  -51.4534    6.4978 C   0  0  0  0  0  0  0  0  0  0  0  0
   -2.5290  -51.2642    5.9573 C   0  0  0  0  0  0  0  0  0  0  0  0
   -2.8264  -50.0751    5.2634 C   0  0  0  0  0  0  0  0  0  0  0  0
   -1.8457  -49.0732    5.1109 C   0  0  0  0  0  0  0  0  0  0  0  0
   -0.5465  -49.2371    5.6460 C   0  0  0  0  0  0  0  0  0  0  0  0
    0.6398  -48.4122    5.6803 C   0  0  0  0  0  0  0  0  0  0  0  0
    0.7658  -47.0204    5.1109 C   0  0  0  0  0  0  0  0  0  0  0  0
    0.8382  -45.9174    6.1894 C   0  0  0  0  0  0  0  0  0  0  0  0
   -0.2514  -46.0044    7.2636 C   0  0  0  0  0  0  0  0  0  0  0  0
   -1.5116  -45.6953    6.6849 O   0  0  0  0  0  0  0  0  0  0  0  0
   -2.6160  -45.6893    7.5101 C   0  0  0  0  0  0  0  0  0  0  0  0
   -4.9357  -45.6105    9.1489 C   0  0  0  0  0  0  0  0  0  0  0  0
   -3.7951  -46.3194    9.5617 C   0  0  0  0  0  0  0  0  0  0  0  0
   -2.6431  -46.3574    8.7572 C   0  0  0  0  0  0  0  0  0  0  0  0
   -4.9328  -44.9377    7.9019 C   0  0  0  0  0  0  0  0  0  0  0  0
   -3.7720  -44.9848    7.0812 C   0  0  0  0  0  0  0  0  0  0  0  0
   -3.7720  -44.3169    5.8386 C   0  0  0  0  0  0  0  0  0  0  0  0
   -4.9088  -43.6148    5.4042 C   0  0  0  0  0  0  0  0  0  0  0  0
   -6.0601  -43.5677    6.2105 C   0  0  0  0  0  0  0  0  0  0  0  0
   -6.0722  -44.2246    7.4561 C   0  0  0  0  0  0  0  0  0  0  0  0
   -6.3143  -45.5879   10.1970 Cl  0  0  0  0  0  0  0  0  0  0  0  0
    1.0415  -50.3407    6.7514 N   0  0  0  0  0  0  0  0  0  0  0  0
    2.9584  -47.3451    5.7897 H   0  0  0  0  0  0  0  0  0  0  0  0
    3.0168  -50.4247    7.6750 H   0  0  0  0  0  0  0  0  0  0  0  0
   -1.0072  -52.3624    7.0305 H   0  0  0  0  0  0  0  0  0  0  0  0
   -3.2842  -52.0274    6.0738 H   0  0  0  0  0  0  0  0  0  0  0  0
   -3.8116  -49.9297    4.8455 H   0  0  0  0  0  0  0  0  0  0  0  0
   -2.0904  -48.1667    4.5773 H   0  0  0  0  0  0  0  0  0  0  0  0
    1.6819  -46.9743    4.5038 H   0  0  0  0  0  0  0  0  0  0  0  0
   -0.1079  -46.8254    4.4717 H   0  0  0  0  0  0  0  0  0  0  0  0
    1.8169  -45.9872    6.6867 H   0  0  0  0  0  0  0  0  0  0  0  0
    0.7499  -44.9417    5.6891 H   0  0  0  0  0  0  0  0  0  0  0  0
   -0.2778  -47.0232    7.6776 H   0  0  0  0  0  0  0  0  0  0  0  0
   -0.0314  -45.2873    8.0682 H   0  0  0  0  0  0  0  0  0  0  0  0
   -3.8035  -46.8408   10.5075 H   0  0  0  0  0  0  0  0  0  0  0  0
   -1.7722  -46.9005    9.0934 H   0  0  0  0  0  0  0  0  0  0  0  0
   -2.8902  -44.3455    5.2156 H   0  0  0  0  0  0  0  0  0  0  0  0
   -4.8985  -43.1103    4.4493 H   0  0  0  0  0  0  0  0  0  0  0  0
   -6.9337  -43.0285    5.8749 H   0  0  0  0  0  0  0  0  0  0  0  0
   -6.9561  -44.1843    8.0754 H   0  0  0  0  0  0  0  0  0  0  0  0
  1  2  1  0  0  0  0
  2  3  1  0  0  0  0
  2  4  2  0  0  0  0
  4 11  1  0  0  0  0
  4 27  1  0  0  0  0
  5  6  1  0  0  0  0
  5 10  1  0  0  0  0
  5 27  2  0  0  0  0
  6  7  2  0  0  0  0
  7  8  1  0  0  0  0
  8  9  2  0  0  0  0
  9 10  1  0  0  0  0
 10 11  2  0  0  0  0
 11 12  1  0  0  0  0
 12 13  1  0  0  0  0
 13 14  1  0  0  0  0
 14 15  1  0  0  0  0
 15 16  1  0  0  0  0
 16 19  2  0  0  0  0
 16 21  1  0  0  0  0
 17 18  2  0  0  0  0
 17 20  1  0  0  0  0
 17 26  1  0  0  0  0
 18 19  1  0  0  0  0
 20 21  2  0  0  0  0
 20 25  1  0  0  0  0
 21 22  1  0  0  0  0
 22 23  2  0  0  0  0
 23 24  1  0  0  0  0
 24 25  2  0  0  0  0
  1 28  1  0  0  0  0
  3 29  1  0  0  0  0
  6 30  1  0  0  0  0
  7 31  1  0  0  0  0
  8 32  1  0  0  0  0
  9 33  1  0  0  0  0
 12 34  1  0  0  0  0
 12 35  1  0  0  0  0
 13 36  1  0  0  0  0
 13 37  1  0  0  0  0
 14 38  1  0  0  0  0
 14 39  1  0  0  0  0
 18 40  1  0  0  0  0
 19 41  1  0  0  0  0
 22 42  1  0  0  0  0
 23 43  1  0  0  0  0
 24 44  1  0  0  0  0
 25 45  1  0  0  0  0
M  END
> <r_user_dG.exp>
-8.6733813532598

$$$$
