32
  -OEChem-05162309453D
 Structure written by MMmdl.
 42 44  0     0  0  0  0  0  0999 V2000
    3.5631  -47.8126    6.2553 O   0  0  0  0  0  0  0  0  0  0  0  0
    3.0220  -48.8134    6.7746 C   0  0  0  0  0  0  0  0  0  0  0  0
    3.6456  -49.5539    7.5776 O   0  0  0  0  0  0  0  0  0  0  0  0
    1.6132  -49.1482    6.4568 C   0  0  0  0  0  0  0  0  0  0  0  0
   -0.2315  -50.4988    6.6095 C   0  0  0  0  0  0  0  0  0  0  0  0
   -1.1869  -51.5016    6.8846 C   0  0  0  0  0  0  0  0  0  0  0  0
   -2.4765  -51.4084    6.3236 C   0  0  0  0  0  0  0  0  0  0  0  0
   -2.8024  -50.3149    5.4953 C   0  0  0  0  0  0  0  0  0  0  0  0
   -1.8441  -49.3159    5.2323 C   0  0  0  0  0  0  0  0  0  0  0  0
   -0.5398  -49.3743    5.7791 C   0  0  0  0  0  0  0  0  0  0  0  0
    0.6317  -48.5299    5.7107 C   0  0  0  0  0  0  0  0  0  0  0  0
    0.7399  -47.2203    4.9660 C   0  0  0  0  0  0  0  0  0  0  0  0
    0.8620  -45.9947    5.8916 C   0  0  0  0  0  0  0  0  0  0  0  0
   -0.3438  -45.7995    6.8144 C   0  0  0  0  0  0  0  0  0  0  0  0
   -1.4784  -45.4115    6.0512 O   0  0  0  0  0  0  0  0  0  0  0  0
   -2.6600  -45.1948    6.7290 C   0  0  0  0  0  0  0  0  0  0  0  0
   -2.8553  -45.5250    8.0921 C   0  0  0  0  0  0  0  0  0  0  0  0
   -4.0865  -45.2606    8.7177 C   0  0  0  0  0  0  0  0  0  0  0  0
   -5.1349  -44.6543    8.0064 C   0  0  0  0  0  0  0  0  0  0  0  0
   -4.9501  -44.3373    6.6470 C   0  0  0  0  0  0  0  0  0  0  0  0
   -3.7260  -44.6100    6.0126 C   0  0  0  0  0  0  0  0  0  0  0  0
    1.0888  -50.3185    6.9933 N   0  0  0  0  0  0  0  0  0  0  0  0
   -6.4399  -44.3423    8.7154 C   0  0  0  0  0  0  0  0  0  0  0  0
    4.5285  -49.2230    7.6938 H   0  0  0  0  0  0  0  0  0  0  0  0
   -0.9308  -52.3354    7.5214 H   0  0  0  0  0  0  0  0  0  0  0  0
   -3.2126  -52.1720    6.5275 H   0  0  0  0  0  0  0  0  0  0  0  0
   -3.7888  -50.2428    5.0614 H   0  0  0  0  0  0  0  0  0  0  0  0
   -2.1116  -48.4843    4.5972 H   0  0  0  0  0  0  0  0  0  0  0  0
    1.6300  -47.2593    4.3208 H   0  0  0  0  0  0  0  0  0  0  0  0
   -0.1590  -47.0984    4.3438 H   0  0  0  0  0  0  0  0  0  0  0  0
    1.7601  -46.1179    6.5147 H   0  0  0  0  0  0  0  0  0  0  0  0
    0.9700  -45.0963    5.2662 H   0  0  0  0  0  0  0  0  0  0  0  0
   -0.5605  -46.7433    7.3362 H   0  0  0  0  0  0  0  0  0  0  0  0
   -0.1154  -45.0165    7.5525 H   0  0  0  0  0  0  0  0  0  0  0  0
   -2.0544  -45.9823    8.6541 H   0  0  0  0  0  0  0  0  0  0  0  0
   -4.2273  -45.5263    9.7550 H   0  0  0  0  0  0  0  0  0  0  0  0
   -5.7542  -43.8817    6.0882 H   0  0  0  0  0  0  0  0  0  0  0  0
   -3.6000  -44.3698    4.9672 H   0  0  0  0  0  0  0  0  0  0  0  0
    1.5976  -50.9486    7.5799 H   0  0  0  0  0  0  0  0  0  0  0  0
   -6.3893  -43.3332    9.1503 H   0  0  0  0  0  0  0  0  0  0  0  0
   -7.2692  -44.3895    7.9943 H   0  0  0  0  0  0  0  0  0  0  0  0
   -6.6074  -45.0783    9.5155 H   0  0  0  0  0  0  0  0  0  0  0  0
  1  2  2  0  0  0  0
  2  3  1  0  0  0  0
  2  4  1  0  0  0  0
  4 11  2  0  0  0  0
  4 22  1  0  0  0  0
  5  6  2  0  0  0  0
  5 10  1  0  0  0  0
  5 22  1  0  0  0  0
  6  7  1  0  0  0  0
  7  8  2  0  0  0  0
  8  9  1  0  0  0  0
  9 10  2  0  0  0  0
 10 11  1  0  0  0  0
 11 12  1  0  0  0  0
 12 13  1  0  0  0  0
 13 14  1  0  0  0  0
 14 15  1  0  0  0  0
 15 16  1  0  0  0  0
 16 17  2  0  0  0  0
 16 21  1  0  0  0  0
 17 18  1  0  0  0  0
 18 19  2  0  0  0  0
 19 20  1  0  0  0  0
 19 23  1  0  0  0  0
 20 21  2  0  0  0  0
  3 24  1  0  0  0  0
  6 25  1  0  0  0  0
  7 26  1  0  0  0  0
  8 27  1  0  0  0  0
  9 28  1  0  0  0  0
 12 29  1  0  0  0  0
 12 30  1  0  0  0  0
 13 31  1  0  0  0  0
 13 32  1  0  0  0  0
 14 33  1  0  0  0  0
 14 34  1  0  0  0  0
 17 35  1  0  0  0  0
 18 36  1  0  0  0  0
 20 37  1  0  0  0  0
 21 38  1  0  0  0  0
 22 39  1  0  0  0  0
 23 40  1  0  0  0  0
 23 41  1  0  0  0  0
 23 42  1  0  0  0  0
M  END
> <r_user_dG.exp>
-6.58301699393044

$$$$
32
  -OEChem-05162309453D
 Structure written by MMmdl.
 42 44  0     1  0  0  0  0  0999 V2000
    3.5631  -47.8126    6.2553 O   0  0  0  0  0  0  0  0  0  0  0  0
    3.0220  -48.8134    6.7746 C   0  0  0  0  0  0  0  0  0  0  0  0
    3.6456  -49.5539    7.5776 O   0  0  0  0  0  0  0  0  0  0  0  0
    1.6132  -49.1482    6.4568 C   0  0  0  0  0  0  0  0  0  0  0  0
   -0.2315  -50.4988    6.6095 C   0  0  0  0  0  0  0  0  0  0  0  0
   -1.1869  -51.5016    6.8846 C   0  0  0  0  0  0  0  0  0  0  0  0
   -2.4765  -51.4084    6.3236 C   0  0  0  0  0  0  0  0  0  0  0  0
   -2.8024  -50.3149    5.4953 C   0  0  0  0  0  0  0  0  0  0  0  0
   -1.8441  -49.3159    5.2323 C   0  0  0  0  0  0  0  0  0  0  0  0
   -0.5398  -49.3743    5.7791 C   0  0  0  0  0  0  0  0  0  0  0  0
    0.6317  -48.5299    5.7107 C   0  0  3  0  0  0  0  0  0  0  0  0
    0.7399  -47.2203    4.9660 C   0  0  0  0  0  0  0  0  0  0  0  0
    0.8620  -45.9947    5.8916 C   0  0  0  0  0  0  0  0  0  0  0  0
   -0.3438  -45.7995    6.8144 C   0  0  0  0  0  0  0  0  0  0  0  0
   -1.4784  -45.4115    6.0512 O   0  0  0  0  0  0  0  0  0  0  0  0
   -2.6600  -45.1948    6.7290 C   0  0  0  0  0  0  0  0  0  0  0  0
   -2.8553  -45.5250    8.0921 C   0  0  0  0  0  0  0  0  0  0  0  0
   -4.0865  -45.2606    8.7177 C   0  0  0  0  0  0  0  0  0  0  0  0
   -5.1349  -44.6543    8.0064 C   0  0  0  0  0  0  0  0  0  0  0  0
   -4.9501  -44.3373    6.6470 C   0  0  0  0  0  0  0  0  0  0  0  0
   -3.7260  -44.6100    6.0126 C   0  0  0  0  0  0  0  0  0  0  0  0
    1.0888  -50.3185    6.9933 N   0  0  0  0  0  0  0  0  0  0  0  0
   -6.4399  -44.3423    8.7154 C   0  0  0  0  0  0  0  0  0  0  0  0
    4.5285  -49.2230    7.6938 H   0  0  0  0  0  0  0  0  0  0  0  0
   -0.9308  -52.3354    7.5214 H   0  0  0  0  0  0  0  0  0  0  0  0
   -3.2126  -52.1720    6.5275 H   0  0  0  0  0  0  0  0  0  0  0  0
   -3.7888  -50.2428    5.0614 H   0  0  0  0  0  0  0  0  0  0  0  0
   -2.1116  -48.4843    4.5972 H   0  0  0  0  0  0  0  0  0  0  0  0
    0.9706  -49.0697    4.8142 H   0  0  0  0  0  0  0  0  0  0  0  0
    1.6300  -47.2593    4.3208 H   0  0  0  0  0  0  0  0  0  0  0  0
   -0.1590  -47.0984    4.3438 H   0  0  0  0  0  0  0  0  0  0  0  0
    1.7601  -46.1179    6.5147 H   0  0  0  0  0  0  0  0  0  0  0  0
    0.9700  -45.0963    5.2662 H   0  0  0  0  0  0  0  0  0  0  0  0
   -0.5605  -46.7433    7.3362 H   0  0  0  0  0  0  0  0  0  0  0  0
   -0.1154  -45.0165    7.5525 H   0  0  0  0  0  0  0  0  0  0  0  0
   -2.0544  -45.9823    8.6541 H   0  0  0  0  0  0  0  0  0  0  0  0
   -4.2273  -45.5263    9.7550 H   0  0  0  0  0  0  0  0  0  0  0  0
   -5.7542  -43.8817    6.0882 H   0  0  0  0  0  0  0  0  0  0  0  0
   -3.6000  -44.3698    4.9672 H   0  0  0  0  0  0  0  0  0  0  0  0
   -6.3893  -43.3332    9.1503 H   0  0  0  0  0  0  0  0  0  0  0  0
   -7.2692  -44.3895    7.9943 H   0  0  0  0  0  0  0  0  0  0  0  0
   -6.6074  -45.0783    9.5155 H   0  0  0  0  0  0  0  0  0  0  0  0
  1  2  2  0  0  0  0
  2  3  1  0  0  0  0
  2  4  1  0  0  0  0
  4 11  1  0  0  0  0
  4 22  2  0  0  0  0
  5  6  2  0  0  0  0
  5 10  1  0  0  0  0
  5 22  1  0  0  0  0
  6  7  1  0  0  0  0
  7  8  2  0  0  0  0
  8  9  1  0  0  0  0
  9 10  2  0  0  0  0
 10 11  1  0  0  0  0
 11 12  1  0  0  0  0
 12 13  1  0  0  0  0
 13 14  1  0  0  0  0
 14 15  1  0  0  0  0
 15 16  1  0  0  0  0
 16 17  2  0  0  0  0
 16 21  1  0  0  0  0
 17 18  1  0  0  0  0
 18 19  2  0  0  0  0
 19 20  1  0  0  0  0
 19 23  1  0  0  0  0
 20 21  2  0  0  0  0
  3 24  1  0  0  0  0
  6 25  1  0  0  0  0
  7 26  1  0  0  0  0
  8 27  1  0  0  0  0
  9 28  1  0  0  0  0
 11 29  1  0  0  0  0
 12 30  1  0  0  0  0
 12 31  1  0  0  0  0
 13 32  1  0  0  0  0
 13 33  1  0  0  0  0
 14 34  1  0  0  0  0
 14 35  1  0  0  0  0
 17 36  1  0  0  0  0
 18 37  1  0  0  0  0
 20 38  1  0  0  0  0
 21 39  1  0  0  0  0
 23 40  1  0  0  0  0
 23 41  1  0  0  0  0
 23 42  1  0  0  0  0
M  END
> <r_user_dG.exp>
-6.58301699393044

$$$$
32
  -OEChem-05162309453D
 Structure written by MMmdl.
 42 44  0     1  0  0  0  0  0999 V2000
    3.5631  -47.8126    6.2553 O   0  0  0  0  0  0  0  0  0  0  0  0
    3.0220  -48.8134    6.7746 C   0  0  0  0  0  0  0  0  0  0  0  0
    3.6456  -49.5539    7.5776 O   0  0  0  0  0  0  0  0  0  0  0  0
    1.6132  -49.1482    6.4568 C   0  0  3  0  0  0  0  0  0  0  0  0
   -0.2315  -50.4988    6.6095 C   0  0  0  0  0  0  0  0  0  0  0  0
   -1.1869  -51.5016    6.8846 C   0  0  0  0  0  0  0  0  0  0  0  0
   -2.4765  -51.4084    6.3236 C   0  0  0  0  0  0  0  0  0  0  0  0
   -2.8024  -50.3149    5.4953 C   0  0  0  0  0  0  0  0  0  0  0  0
   -1.8441  -49.3159    5.2323 C   0  0  0  0  0  0  0  0  0  0  0  0
   -0.5398  -49.3743    5.7791 C   0  0  0  0  0  0  0  0  0  0  0  0
    0.6317  -48.5299    5.7107 C   0  0  0  0  0  0  0  0  0  0  0  0
    0.7399  -47.2203    4.9660 C   0  0  0  0  0  0  0  0  0  0  0  0
    0.8620  -45.9947    5.8916 C   0  0  0  0  0  0  0  0  0  0  0  0
   -0.3438  -45.7995    6.8144 C   0  0  0  0  0  0  0  0  0  0  0  0
   -1.4784  -45.4115    6.0512 O   0  0  0  0  0  0  0  0  0  0  0  0
   -2.6600  -45.1948    6.7290 C   0  0  0  0  0  0  0  0  0  0  0  0
   -2.8553  -45.5250    8.0921 C   0  0  0  0  0  0  0  0  0  0  0  0
   -4.0865  -45.2606    8.7177 C   0  0  0  0  0  0  0  0  0  0  0  0
   -5.1349  -44.6543    8.0064 C   0  0  0  0  0  0  0  0  0  0  0  0
   -4.9501  -44.3373    6.6470 C   0  0  0  0  0  0  0  0  0  0  0  0
   -3.7260  -44.6100    6.0126 C   0  0  0  0  0  0  0  0  0  0  0  0
    1.0888  -50.3185    6.9933 N   0  0  0  0  0  0  0  0  0  0  0  0
   -6.4399  -44.3423    8.7154 C   0  0  0  0  0  0  0  0  0  0  0  0
    4.5285  -49.2230    7.6938 H   0  0  0  0  0  0  0  0  0  0  0  0
    1.9439  -49.7024    5.5660 H   0  0  0  0  0  0  0  0  0  0  0  0
   -0.9308  -52.3354    7.5214 H   0  0  0  0  0  0  0  0  0  0  0  0
   -3.2126  -52.1720    6.5275 H   0  0  0  0  0  0  0  0  0  0  0  0
   -3.7888  -50.2428    5.0614 H   0  0  0  0  0  0  0  0  0  0  0  0
   -2.1116  -48.4843    4.5972 H   0  0  0  0  0  0  0  0  0  0  0  0
    1.6300  -47.2593    4.3208 H   0  0  0  0  0  0  0  0  0  0  0  0
   -0.1590  -47.0984    4.3438 H   0  0  0  0  0  0  0  0  0  0  0  0
    1.7601  -46.1179    6.5147 H   0  0  0  0  0  0  0  0  0  0  0  0
    0.9700  -45.0963    5.2662 H   0  0  0  0  0  0  0  0  0  0  0  0
   -0.5605  -46.7433    7.3362 H   0  0  0  0  0  0  0  0  0  0  0  0
   -0.1154  -45.0165    7.5525 H   0  0  0  0  0  0  0  0  0  0  0  0
   -2.0544  -45.9823    8.6541 H   0  0  0  0  0  0  0  0  0  0  0  0
   -4.2273  -45.5263    9.7550 H   0  0  0  0  0  0  0  0  0  0  0  0
   -5.7542  -43.8817    6.0882 H   0  0  0  0  0  0  0  0  0  0  0  0
   -3.6000  -44.3698    4.9672 H   0  0  0  0  0  0  0  0  0  0  0  0
   -6.3893  -43.3332    9.1503 H   0  0  0  0  0  0  0  0  0  0  0  0
   -7.2692  -44.3895    7.9943 H   0  0  0  0  0  0  0  0  0  0  0  0
   -6.6074  -45.0783    9.5155 H   0  0  0  0  0  0  0  0  0  0  0  0
  1  2  2  0  0  0  0
  2  3  1  0  0  0  0
  2  4  1  0  0  0  0
  4 11  1  0  0  0  0
  4 22  1  0  0  0  0
  5  6  1  0  0  0  0
  5 10  1  0  0  0  0
  5 22  2  0  0  0  0
  6  7  2  0  0  0  0
  7  8  1  0  0  0  0
  8  9  2  0  0  0  0
  9 10  1  0  0  0  0
 10 11  2  0  0  0  0
 11 12  1  0  0  0  0
 12 13  1  0  0  0  0
 13 14  1  0  0  0  0
 14 15  1  0  0  0  0
 15 16  1  0  0  0  0
 16 17  2  0  0  0  0
 16 21  1  0  0  0  0
 17 18  1  0  0  0  0
 18 19  2  0  0  0  0
 19 20  1  0  0  0  0
 19 23  1  0  0  0  0
 20 21  2  0  0  0  0
  3 24  1  0  0  0  0
  4 25  1  0  0  0  0
  6 26  1  0  0  0  0
  7 27  1  0  0  0  0
  8 28  1  0  0  0  0
  9 29  1  0  0  0  0
 12 30  1  0  0  0  0
 12 31  1  0  0  0  0
 13 32  1  0  0  0  0
 13 33  1  0  0  0  0
 14 34  1  0  0  0  0
 14 35  1  0  0  0  0
 17 36  1  0  0  0  0
 18 37  1  0  0  0  0
 20 38  1  0  0  0  0
 21 39  1  0  0  0  0
 23 40  1  0  0  0  0
 23 41  1  0  0  0  0
 23 42  1  0  0  0  0
M  END
> <r_user_dG.exp>
-6.58301699393044

$$$$
32
  -OEChem-05162309453D
 Structure written by MMmdl.
 42 44  0     1  0  0  0  0  0999 V2000
    3.5631  -47.8126    6.2553 O   0  0  0  0  0  0  0  0  0  0  0  0
    3.0220  -48.8134    6.7746 C   0  0  0  0  0  0  0  0  0  0  0  0
    3.6456  -49.5539    7.5776 O   0  0  0  0  0  0  0  0  0  0  0  0
    1.6132  -49.1482    6.4568 C   0  0  0  0  0  0  0  0  0  0  0  0
   -0.2315  -50.4988    6.6095 C   0  0  0  0  0  0  0  0  0  0  0  0
   -1.1869  -51.5016    6.8846 C   0  0  0  0  0  0  0  0  0  0  0  0
   -2.4765  -51.4084    6.3236 C   0  0  0  0  0  0  0  0  0  0  0  0
   -2.8024  -50.3149    5.4953 C   0  0  0  0  0  0  0  0  0  0  0  0
   -1.8441  -49.3159    5.2323 C   0  0  0  0  0  0  0  0  0  0  0  0
   -0.5398  -49.3743    5.7791 C   0  0  3  0  0  0  0  0  0  0  0  0
    0.6317  -48.5299    5.7107 C   0  0  0  0  0  0  0  0  0  0  0  0
    0.7399  -47.2203    4.9660 C   0  0  0  0  0  0  0  0  0  0  0  0
    0.8620  -45.9947    5.8916 C   0  0  0  0  0  0  0  0  0  0  0  0
   -0.3438  -45.7995    6.8144 C   0  0  0  0  0  0  0  0  0  0  0  0
   -1.4784  -45.4115    6.0512 O   0  0  0  0  0  0  0  0  0  0  0  0
   -2.6600  -45.1948    6.7290 C   0  0  0  0  0  0  0  0  0  0  0  0
   -2.8553  -45.5250    8.0921 C   0  0  0  0  0  0  0  0  0  0  0  0
   -4.0865  -45.2606    8.7177 C   0  0  0  0  0  0  0  0  0  0  0  0
   -5.1349  -44.6543    8.0064 C   0  0  0  0  0  0  0  0  0  0  0  0
   -4.9501  -44.3373    6.6470 C   0  0  0  0  0  0  0  0  0  0  0  0
   -3.7260  -44.6100    6.0126 C   0  0  0  0  0  0  0  0  0  0  0  0
    1.0888  -50.3185    6.9933 N   0  0  0  0  0  0  0  0  0  0  0  0
   -6.4399  -44.3423    8.7154 C   0  0  0  0  0  0  0  0  0  0  0  0
    4.5285  -49.2230    7.6938 H   0  0  0  0  0  0  0  0  0  0  0  0
   -0.9308  -52.3354    7.5214 H   0  0  0  0  0  0  0  0  0  0  0  0
   -3.2126  -52.1720    6.5275 H   0  0  0  0  0  0  0  0  0  0  0  0
   -3.7888  -50.2428    5.0614 H   0  0  0  0  0  0  0  0  0  0  0  0
   -2.1116  -48.4843    4.5972 H   0  0  0  0  0  0  0  0  0  0  0  0
   -0.1927  -49.9299    4.8954 H   0  0  0  0  0  0  0  0  0  0  0  0
    1.6300  -47.2593    4.3208 H   0  0  0  0  0  0  0  0  0  0  0  0
   -0.1590  -47.0984    4.3438 H   0  0  0  0  0  0  0  0  0  0  0  0
    1.7601  -46.1179    6.5147 H   0  0  0  0  0  0  0  0  0  0  0  0
    0.9700  -45.0963    5.2662 H   0  0  0  0  0  0  0  0  0  0  0  0
   -0.5605  -46.7433    7.3362 H   0  0  0  0  0  0  0  0  0  0  0  0
   -0.1154  -45.0165    7.5525 H   0  0  0  0  0  0  0  0  0  0  0  0
   -2.0544  -45.9823    8.6541 H   0  0  0  0  0  0  0  0  0  0  0  0
   -4.2273  -45.5263    9.7550 H   0  0  0  0  0  0  0  0  0  0  0  0
   -5.7542  -43.8817    6.0882 H   0  0  0  0  0  0  0  0  0  0  0  0
   -3.6000  -44.3698    4.9672 H   0  0  0  0  0  0  0  0  0  0  0  0
   -6.3893  -43.3332    9.1503 H   0  0  0  0  0  0  0  0  0  0  0  0
   -7.2692  -44.3895    7.9943 H   0  0  0  0  0  0  0  0  0  0  0  0
   -6.6074  -45.0783    9.5155 H   0  0  0  0  0  0  0  0  0  0  0  0
  1  2  2  0  0  0  0
  2  3  1  0  0  0  0
  2  4  1  0  0  0  0
  4 11  2  0  0  0  0
  4 22  1  0  0  0  0
  5  6  1  0  0  0  0
  5 10  1  0  0  0  0
  5 22  2  0  0  0  0
  6  7  2  0  0  0  0
  7  8  1  0  0  0  0
  8  9  2  0  0  0  0
  9 10  1  0  0  0  0
 10 11  1  0  0  0  0
 11 12  1  0  0  0  0
 12 13  1  0  0  0  0
 13 14  1  0  0  0  0
 14 15  1  0  0  0  0
 15 16  1  0  0  0  0
 16 17  2  0  0  0  0
 16 21  1  0  0  0  0
 17 18  1  0  0  0  0
 18 19  2  0  0  0  0
 19 20  1  0  0  0  0
 19 23  1  0  0  0  0
 20 21  2  0  0  0  0
  3 24  1  0  0  0  0
  6 25  1  0  0  0  0
  7 26  1  0  0  0  0
  8 27  1  0  0  0  0
  9 28  1  0  0  0  0
 10 29  1  0  0  0  0
 12 30  1  0  0  0  0
 12 31  1  0  0  0  0
 13 32  1  0  0  0  0
 13 33  1  0  0  0  0
 14 34  1  0  0  0  0
 14 35  1  0  0  0  0
 17 36  1  0  0  0  0
 18 37  1  0  0  0  0
 20 38  1  0  0  0  0
 21 39  1  0  0  0  0
 23 40  1  0  0  0  0
 23 41  1  0  0  0  0
 23 42  1  0  0  0  0
M  END
> <r_user_dG.exp>
-6.58301699393044

$$$$
32
  -OEChem-05162309453D
 Structure written by MMmdl.
 42 44  0     1  0  0  0  0  0999 V2000
    3.5631  -47.8126    6.2553 O   0  0  0  0  0  0  0  0  0  0  0  0
    3.0220  -48.8134    6.7746 C   0  0  0  0  0  0  0  0  0  0  0  0
    3.6456  -49.5539    7.5776 O   0  0  0  0  0  0  0  0  0  0  0  0
    1.6132  -49.1482    6.4568 C   0  0  0  0  0  0  0  0  0  0  0  0
   -0.2315  -50.4988    6.6095 C   0  0  3  0  0  0  0  0  0  0  0  0
   -1.1869  -51.5016    6.8846 C   0  0  0  0  0  0  0  0  0  0  0  0
   -2.4765  -51.4084    6.3236 C   0  0  0  0  0  0  0  0  0  0  0  0
   -2.8024  -50.3149    5.4953 C   0  0  0  0  0  0  0  0  0  0  0  0
   -1.8441  -49.3159    5.2323 C   0  0  0  0  0  0  0  0  0  0  0  0
   -0.5398  -49.3743    5.7791 C   0  0  0  0  0  0  0  0  0  0  0  0
    0.6317  -48.5299    5.7107 C   0  0  0  0  0  0  0  0  0  0  0  0
    0.7399  -47.2203    4.9660 C   0  0  0  0  0  0  0  0  0  0  0  0
    0.8620  -45.9947    5.8916 C   0  0  0  0  0  0  0  0  0  0  0  0
   -0.3438  -45.7995    6.8144 C   0  0  0  0  0  0  0  0  0  0  0  0
   -1.4784  -45.4115    6.0512 O   0  0  0  0  0  0  0  0  0  0  0  0
   -2.6600  -45.1948    6.7290 C   0  0  0  0  0  0  0  0  0  0  0  0
   -2.8553  -45.5250    8.0921 C   0  0  0  0  0  0  0  0  0  0  0  0
   -4.0865  -45.2606    8.7177 C   0  0  0  0  0  0  0  0  0  0  0  0
   -5.1349  -44.6543    8.0064 C   0  0  0  0  0  0  0  0  0  0  0  0
   -4.9501  -44.3373    6.6470 C   0  0  0  0  0  0  0  0  0  0  0  0
   -3.7260  -44.6100    6.0126 C   0  0  0  0  0  0  0  0  0  0  0  0
    1.0888  -50.3185    6.9933 N   0  0  0  0  0  0  0  0  0  0  0  0
   -6.4399  -44.3423    8.7154 C   0  0  0  0  0  0  0  0  0  0  0  0
    4.5285  -49.2230    7.6938 H   0  0  0  0  0  0  0  0  0  0  0  0
   -0.5657  -49.9373    7.4944 H   0  0  0  0  0  0  0  0  0  0  0  0
   -0.9308  -52.3354    7.5214 H   0  0  0  0  0  0  0  0  0  0  0  0
   -3.2126  -52.1720    6.5275 H   0  0  0  0  0  0  0  0  0  0  0  0
   -3.7888  -50.2428    5.0614 H   0  0  0  0  0  0  0  0  0  0  0  0
   -2.1116  -48.4843    4.5972 H   0  0  0  0  0  0  0  0  0  0  0  0
    1.6300  -47.2593    4.3208 H   0  0  0  0  0  0  0  0  0  0  0  0
   -0.1590  -47.0984    4.3438 H   0  0  0  0  0  0  0  0  0  0  0  0
    1.7601  -46.1179    6.5147 H   0  0  0  0  0  0  0  0  0  0  0  0
    0.9700  -45.0963    5.2662 H   0  0  0  0  0  0  0  0  0  0  0  0
   -0.5605  -46.7433    7.3362 H   0  0  0  0  0  0  0  0  0  0  0  0
   -0.1154  -45.0165    7.5525 H   0  0  0  0  0  0  0  0  0  0  0  0
   -2.0544  -45.9823    8.6541 H   0  0  0  0  0  0  0  0  0  0  0  0
   -4.2273  -45.5263    9.7550 H   0  0  0  0  0  0  0  0  0  0  0  0
   -5.7542  -43.8817    6.0882 H   0  0  0  0  0  0  0  0  0  0  0  0
   -3.6000  -44.3698    4.9672 H   0  0  0  0  0  0  0  0  0  0  0  0
   -6.3893  -43.3332    9.1503 H   0  0  0  0  0  0  0  0  0  0  0  0
   -7.2692  -44.3895    7.9943 H   0  0  0  0  0  0  0  0  0  0  0  0
   -6.6074  -45.0783    9.5155 H   0  0  0  0  0  0  0  0  0  0  0  0
  1  2  2  0  0  0  0
  2  3  1  0  0  0  0
  2  4  1  0  0  0  0
  4 11  1  0  0  0  0
  4 22  2  0  0  0  0
  5  6  1  0  0  0  0
  5 10  1  0  0  0  0
  5 22  1  0  0  0  0
  6  7  2  0  0  0  0
  7  8  1  0  0  0  0
  8  9  2  0  0  0  0
  9 10  1  0  0  0  0
 10 11  2  0  0  0  0
 11 12  1  0  0  0  0
 12 13  1  0  0  0  0
 13 14  1  0  0  0  0
 14 15  1  0  0  0  0
 15 16  1  0  0  0  0
 16 17  2  0  0  0  0
 16 21  1  0  0  0  0
 17 18  1  0  0  0  0
 18 19  2  0  0  0  0
 19 20  1  0  0  0  0
 19 23  1  0  0  0  0
 20 21  2  0  0  0  0
  3 24  1  0  0  0  0
  5 25  1  0  0  0  0
  6 26  1  0  0  0  0
  7 27  1  0  0  0  0
  8 28  1  0  0  0  0
  9 29  1  0  0  0  0
 12 30  1  0  0  0  0
 12 31  1  0  0  0  0
 13 32  1  0  0  0  0
 13 33  1  0  0  0  0
 14 34  1  0  0  0  0
 14 35  1  0  0  0  0
 17 36  1  0  0  0  0
 18 37  1  0  0  0  0
 20 38  1  0  0  0  0
 21 39  1  0  0  0  0
 23 40  1  0  0  0  0
 23 41  1  0  0  0  0
 23 42  1  0  0  0  0
M  END
> <r_user_dG.exp>
-6.58301699393044

$$$$
32
  -OEChem-05162309453D
 Structure written by MMmdl.
 42 44  0     0  0  0  0  0  0999 V2000
    3.5631  -47.8126    6.2553 O   0  0  0  0  0  0  0  0  0  0  0  0
    3.0220  -48.8134    6.7746 C   0  0  0  0  0  0  0  0  0  0  0  0
    3.6456  -49.5539    7.5776 O   0  0  0  0  0  0  0  0  0  0  0  0
    1.6132  -49.1482    6.4568 C   0  0  0  0  0  0  0  0  0  0  0  0
   -0.2315  -50.4988    6.6095 C   0  0  0  0  0  0  0  0  0  0  0  0
   -1.1869  -51.5016    6.8846 C   0  0  0  0  0  0  0  0  0  0  0  0
   -2.4765  -51.4084    6.3236 C   0  0  0  0  0  0  0  0  0  0  0  0
   -2.8024  -50.3149    5.4953 C   0  0  0  0  0  0  0  0  0  0  0  0
   -1.8441  -49.3159    5.2323 C   0  0  0  0  0  0  0  0  0  0  0  0
   -0.5398  -49.3743    5.7791 C   0  0  0  0  0  0  0  0  0  0  0  0
    0.6317  -48.5299    5.7107 C   0  0  0  0  0  0  0  0  0  0  0  0
    0.7399  -47.2203    4.9660 C   0  0  0  0  0  0  0  0  0  0  0  0
    0.8620  -45.9947    5.8916 C   0  0  0  0  0  0  0  0  0  0  0  0
   -0.3438  -45.7995    6.8144 C   0  0  0  0  0  0  0  0  0  0  0  0
   -1.4784  -45.4115    6.0512 O   0  0  0  0  0  0  0  0  0  0  0  0
   -2.6600  -45.1948    6.7290 C   0  0  0  0  0  0  0  0  0  0  0  0
   -2.8553  -45.5250    8.0921 C   0  0  0  0  0  0  0  0  0  0  0  0
   -4.0865  -45.2606    8.7177 C   0  0  0  0  0  0  0  0  0  0  0  0
   -5.1349  -44.6543    8.0064 C   0  0  0  0  0  0  0  0  0  0  0  0
   -4.9501  -44.3373    6.6470 C   0  0  0  0  0  0  0  0  0  0  0  0
   -3.7260  -44.6100    6.0126 C   0  0  0  0  0  0  0  0  0  0  0  0
    1.0888  -50.3185    6.9933 N   0  0  0  0  0  0  0  0  0  0  0  0
   -6.4399  -44.3423    8.7154 C   0  0  0  0  0  0  0  0  0  0  0  0
    4.5285  -49.2230    7.6938 H   0  0  0  0  0  0  0  0  0  0  0  0
   -0.9308  -52.3354    7.5214 H   0  0  0  0  0  0  0  0  0  0  0  0
   -3.2126  -52.1720    6.5275 H   0  0  0  0  0  0  0  0  0  0  0  0
   -3.1002  -50.7323    4.5221 H   0  0  0  0  0  0  0  0  0  0  0  0
   -3.6647  -49.8127    5.9582 H   0  0  0  0  0  0  0  0  0  0  0  0
   -2.1116  -48.4843    4.5972 H   0  0  0  0  0  0  0  0  0  0  0  0
    1.6300  -47.2593    4.3208 H   0  0  0  0  0  0  0  0  0  0  0  0
   -0.1590  -47.0984    4.3438 H   0  0  0  0  0  0  0  0  0  0  0  0
    1.7601  -46.1179    6.5147 H   0  0  0  0  0  0  0  0  0  0  0  0
    0.9700  -45.0963    5.2662 H   0  0  0  0  0  0  0  0  0  0  0  0
   -0.5605  -46.7433    7.3362 H   0  0  0  0  0  0  0  0  0  0  0  0
   -0.1154  -45.0165    7.5525 H   0  0  0  0  0  0  0  0  0  0  0  0
   -2.0544  -45.9823    8.6541 H   0  0  0  0  0  0  0  0  0  0  0  0
   -4.2273  -45.5263    9.7550 H   0  0  0  0  0  0  0  0  0  0  0  0
   -5.7542  -43.8817    6.0882 H   0  0  0  0  0  0  0  0  0  0  0  0
   -3.6000  -44.3698    4.9672 H   0  0  0  0  0  0  0  0  0  0  0  0
   -6.3893  -43.3332    9.1503 H   0  0  0  0  0  0  0  0  0  0  0  0
   -7.2692  -44.3895    7.9943 H   0  0  0  0  0  0  0  0  0  0  0  0
   -6.6074  -45.0783    9.5155 H   0  0  0  0  0  0  0  0  0  0  0  0
  1  2  2  0  0  0  0
  2  3  1  0  0  0  0
  2  4  1  0  0  0  0
  4 11  2  0  0  0  0
  4 22  1  0  0  0  0
  5  6  1  0  0  0  0
  5 10  1  0  0  0  0
  5 22  2  0  0  0  0
  6  7  2  0  0  0  0
  7  8  1  0  0  0  0
  8  9  1  0  0  0  0
  9 10  2  0  0  0  0
 10 11  1  0  0  0  0
 11 12  1  0  0  0  0
 12 13  1  0  0  0  0
 13 14  1  0  0  0  0
 14 15  1  0  0  0  0
 15 16  1  0  0  0  0
 16 17  2  0  0  0  0
 16 21  1  0  0  0  0
 17 18  1  0  0  0  0
 18 19  2  0  0  0  0
 19 20  1  0  0  0  0
 19 23  1  0  0  0  0
 20 21  2  0  0  0  0
  3 24  1  0  0  0  0
  6 25  1  0  0  0  0
  7 26  1  0  0  0  0
  8 27  1  0  0  0  0
  8 28  1  0  0  0  0
  9 29  1  0  0  0  0
 12 30  1  0  0  0  0
 12 31  1  0  0  0  0
 13 32  1  0  0  0  0
 13 33  1  0  0  0  0
 14 34  1  0  0  0  0
 14 35  1  0  0  0  0
 17 36  1  0  0  0  0
 18 37  1  0  0  0  0
 20 38  1  0  0  0  0
 21 39  1  0  0  0  0
 23 40  1  0  0  0  0
 23 41  1  0  0  0  0
 23 42  1  0  0  0  0
M  END
> <r_user_dG.exp>
-6.58301699393044

$$$$
32
  -OEChem-05162309453D
 Structure written by MMmdl.
 42 44  0     0  0  0  0  0  0999 V2000
    3.5631  -47.8126    6.2553 O   0  0  0  0  0  0  0  0  0  0  0  0
    3.0220  -48.8134    6.7746 C   0  0  0  0  0  0  0  0  0  0  0  0
    3.6456  -49.5539    7.5776 O   0  0  0  0  0  0  0  0  0  0  0  0
    1.6132  -49.1482    6.4568 C   0  0  0  0  0  0  0  0  0  0  0  0
   -0.2315  -50.4988    6.6095 C   0  0  0  0  0  0  0  0  0  0  0  0
   -1.1869  -51.5016    6.8846 C   0  0  0  0  0  0  0  0  0  0  0  0
   -2.4765  -51.4084    6.3236 C   0  0  0  0  0  0  0  0  0  0  0  0
   -2.8024  -50.3149    5.4953 C   0  0  0  0  0  0  0  0  0  0  0  0
   -1.8441  -49.3159    5.2323 C   0  0  0  0  0  0  0  0  0  0  0  0
   -0.5398  -49.3743    5.7791 C   0  0  0  0  0  0  0  0  0  0  0  0
    0.6317  -48.5299    5.7107 C   0  0  0  0  0  0  0  0  0  0  0  0
    0.7399  -47.2203    4.9660 C   0  0  0  0  0  0  0  0  0  0  0  0
    0.8620  -45.9947    5.8916 C   0  0  0  0  0  0  0  0  0  0  0  0
   -0.3438  -45.7995    6.8144 C   0  0  0  0  0  0  0  0  0  0  0  0
   -1.4784  -45.4115    6.0512 O   0  0  0  0  0  0  0  0  0  0  0  0
   -2.6600  -45.1948    6.7290 C   0  0  0  0  0  0  0  0  0  0  0  0
   -2.8553  -45.5250    8.0921 C   0  0  0  0  0  0  0  0  0  0  0  0
   -4.0865  -45.2606    8.7177 C   0  0  0  0  0  0  0  0  0  0  0  0
   -5.1349  -44.6543    8.0064 C   0  0  0  0  0  0  0  0  0  0  0  0
   -4.9501  -44.3373    6.6470 C   0  0  0  0  0  0  0  0  0  0  0  0
   -3.7260  -44.6100    6.0126 C   0  0  0  0  0  0  0  0  0  0  0  0
    1.0888  -50.3185    6.9933 N   0  0  0  0  0  0  0  0  0  0  0  0
   -6.4399  -44.3423    8.7154 C   0  0  0  0  0  0  0  0  0  0  0  0
    4.5285  -49.2230    7.6938 H   0  0  0  0  0  0  0  0  0  0  0  0
   -0.9308  -52.3354    7.5214 H   0  0  0  0  0  0  0  0  0  0  0  0
   -2.6301  -52.3184    5.7250 H   0  0  0  0  0  0  0  0  0  0  0  0
   -3.1886  -51.3964    7.1619 H   0  0  0  0  0  0  0  0  0  0  0  0
   -3.7888  -50.2428    5.0614 H   0  0  0  0  0  0  0  0  0  0  0  0
   -2.1116  -48.4843    4.5972 H   0  0  0  0  0  0  0  0  0  0  0  0
    1.6300  -47.2593    4.3208 H   0  0  0  0  0  0  0  0  0  0  0  0
   -0.1590  -47.0984    4.3438 H   0  0  0  0  0  0  0  0  0  0  0  0
    1.7601  -46.1179    6.5147 H   0  0  0  0  0  0  0  0  0  0  0  0
    0.9700  -45.0963    5.2662 H   0  0  0  0  0  0  0  0  0  0  0  0
   -0.5605  -46.7433    7.3362 H   0  0  0  0  0  0  0  0  0  0  0  0
   -0.1154  -45.0165    7.5525 H   0  0  0  0  0  0  0  0  0  0  0  0
   -2.0544  -45.9823    8.6541 H   0  0  0  0  0  0  0  0  0  0  0  0
   -4.2273  -45.5263    9.7550 H   0  0  0  0  0  0  0  0  0  0  0  0
   -5.7542  -43.8817    6.0882 H   0  0  0  0  0  0  0  0  0  0  0  0
   -3.6000  -44.3698    4.9672 H   0  0  0  0  0  0  0  0  0  0  0  0
   -6.3893  -43.3332    9.1503 H   0  0  0  0  0  0  0  0  0  0  0  0
   -7.2692  -44.3895    7.9943 H   0  0  0  0  0  0  0  0  0  0  0  0
   -6.6074  -45.0783    9.5155 H   0  0  0  0  0  0  0  0  0  0  0  0
  1  2  2  0  0  0  0
  2  3  1  0  0  0  0
  2  4  1  0  0  0  0
  4 11  1  0  0  0  0
  4 22  2  0  0  0  0
  5  6  2  0  0  0  0
  5 10  1  0  0  0  0
  5 22  1  0  0  0  0
  6  7  1  0  0  0  0
  7  8  1  0  0  0  0
  8  9  2  0  0  0  0
  9 10  1  0  0  0  0
 10 11  2  0  0  0  0
 11 12  1  0  0  0  0
 12 13  1  0  0  0  0
 13 14  1  0  0  0  0
 14 15  1  0  0  0  0
 15 16  1  0  0  0  0
 16 17  2  0  0  0  0
 16 21  1  0  0  0  0
 17 18  1  0  0  0  0
 18 19  2  0  0  0  0
 19 20  1  0  0  0  0
 19 23  1  0  0  0  0
 20 21  2  0  0  0  0
  3 24  1  0  0  0  0
  6 25  1  0  0  0  0
  7 26  1  0  0  0  0
  7 27  1  0  0  0  0
  8 28  1  0  0  0  0
  9 29  1  0  0  0  0
 12 30  1  0  0  0  0
 12 31  1  0  0  0  0
 13 32  1  0  0  0  0
 13 33  1  0  0  0  0
 14 34  1  0  0  0  0
 14 35  1  0  0  0  0
 17 36  1  0  0  0  0
 18 37  1  0  0  0  0
 20 38  1  0  0  0  0
 21 39  1  0  0  0  0
 23 40  1  0  0  0  0
 23 41  1  0  0  0  0
 23 42  1  0  0  0  0
M  END
> <r_user_dG.exp>
-6.58301699393044

$$$$
32
  -OEChem-05162309453D
 Structure written by MMmdl.
 42 44  0     0  0  0  0  0  0999 V2000
    3.5631  -47.8126    6.2553 O   0  0  0  0  0  0  0  0  0  0  0  0
    3.0220  -48.8134    6.7746 C   0  0  0  0  0  0  0  0  0  0  0  0
    3.6456  -49.5539    7.5776 O   0  0  0  0  0  0  0  0  0  0  0  0
    1.6132  -49.1482    6.4568 C   0  0  0  0  0  0  0  0  0  0  0  0
   -0.2315  -50.4988    6.6095 C   0  0  0  0  0  0  0  0  0  0  0  0
   -1.1869  -51.5016    6.8846 C   0  0  0  0  0  0  0  0  0  0  0  0
   -2.4765  -51.4084    6.3236 C   0  0  0  0  0  0  0  0  0  0  0  0
   -2.8024  -50.3149    5.4953 C   0  0  0  0  0  0  0  0  0  0  0  0
   -1.8441  -49.3159    5.2323 C   0  0  0  0  0  0  0  0  0  0  0  0
   -0.5398  -49.3743    5.7791 C   0  0  0  0  0  0  0  0  0  0  0  0
    0.6317  -48.5299    5.7107 C   0  0  0  0  0  0  0  0  0  0  0  0
    0.7399  -47.2203    4.9660 C   0  0  0  0  0  0  0  0  0  0  0  0
    0.8620  -45.9947    5.8916 C   0  0  0  0  0  0  0  0  0  0  0  0
   -0.3438  -45.7995    6.8144 C   0  0  0  0  0  0  0  0  0  0  0  0
   -1.4784  -45.4115    6.0512 O   0  0  0  0  0  0  0  0  0  0  0  0
   -2.6600  -45.1948    6.7290 C   0  0  0  0  0  0  0  0  0  0  0  0
   -2.8553  -45.5250    8.0921 C   0  0  0  0  0  0  0  0  0  0  0  0
   -4.0865  -45.2606    8.7177 C   0  0  0  0  0  0  0  0  0  0  0  0
   -5.1349  -44.6543    8.0064 C   0  0  0  0  0  0  0  0  0  0  0  0
   -4.9501  -44.3373    6.6470 C   0  0  0  0  0  0  0  0  0  0  0  0
   -3.7260  -44.6100    6.0126 C   0  0  0  0  0  0  0  0  0  0  0  0
    1.0888  -50.3185    6.9933 N   0  0  0  0  0  0  0  0  0  0  0  0
   -6.4399  -44.3423    8.7154 C   0  0  0  0  0  0  0  0  0  0  0  0
    4.5285  -49.2230    7.6938 H   0  0  0  0  0  0  0  0  0  0  0  0
   -0.7575  -52.4544    6.5414 H   0  0  0  0  0  0  0  0  0  0  0  0
   -1.3151  -51.5294    7.9768 H   0  0  0  0  0  0  0  0  0  0  0  0
   -3.2126  -52.1720    6.5275 H   0  0  0  0  0  0  0  0  0  0  0  0
   -3.7888  -50.2428    5.0614 H   0  0  0  0  0  0  0  0  0  0  0  0
   -2.1116  -48.4843    4.5972 H   0  0  0  0  0  0  0  0  0  0  0  0
    1.6300  -47.2593    4.3208 H   0  0  0  0  0  0  0  0  0  0  0  0
   -0.1590  -47.0984    4.3438 H   0  0  0  0  0  0  0  0  0  0  0  0
    1.7601  -46.1179    6.5147 H   0  0  0  0  0  0  0  0  0  0  0  0
    0.9700  -45.0963    5.2662 H   0  0  0  0  0  0  0  0  0  0  0  0
   -0.5605  -46.7433    7.3362 H   0  0  0  0  0  0  0  0  0  0  0  0
   -0.1154  -45.0165    7.5525 H   0  0  0  0  0  0  0  0  0  0  0  0
   -2.0544  -45.9823    8.6541 H   0  0  0  0  0  0  0  0  0  0  0  0
   -4.2273  -45.5263    9.7550 H   0  0  0  0  0  0  0  0  0  0  0  0
   -5.7542  -43.8817    6.0882 H   0  0  0  0  0  0  0  0  0  0  0  0
   -3.6000  -44.3698    4.9672 H   0  0  0  0  0  0  0  0  0  0  0  0
   -6.3893  -43.3332    9.1503 H   0  0  0  0  0  0  0  0  0  0  0  0
   -7.2692  -44.3895    7.9943 H   0  0  0  0  0  0  0  0  0  0  0  0
   -6.6074  -45.0783    9.5155 H   0  0  0  0  0  0  0  0  0  0  0  0
  1  2  2  0  0  0  0
  2  3  1  0  0  0  0
  2  4  1  0  0  0  0
  4 11  2  0  0  0  0
  4 22  1  0  0  0  0
  5  6  1  0  0  0  0
  5 10  1  0  0  0  0
  5 22  2  0  0  0  0
  6  7  1  0  0  0  0
  7  8  2  0  0  0  0
  8  9  1  0  0  0  0
  9 10  2  0  0  0  0
 10 11  1  0  0  0  0
 11 12  1  0  0  0  0
 12 13  1  0  0  0  0
 13 14  1  0  0  0  0
 14 15  1  0  0  0  0
 15 16  1  0  0  0  0
 16 17  2  0  0  0  0
 16 21  1  0  0  0  0
 17 18  1  0  0  0  0
 18 19  2  0  0  0  0
 19 20  1  0  0  0  0
 19 23  1  0  0  0  0
 20 21  2  0  0  0  0
  3 24  1  0  0  0  0
  6 25  1  0  0  0  0
  6 26  1  0  0  0  0
  7 27  1  0  0  0  0
  8 28  1  0  0  0  0
  9 29  1  0  0  0  0
 12 30  1  0  0  0  0
 12 31  1  0  0  0  0
 13 32  1  0  0  0  0
 13 33  1  0  0  0  0
 14 34  1  0  0  0  0
 14 35  1  0  0  0  0
 17 36  1  0  0  0  0
 18 37  1  0  0  0  0
 20 38  1  0  0  0  0
 21 39  1  0  0  0  0
 23 40  1  0  0  0  0
 23 41  1  0  0  0  0
 23 42  1  0  0  0  0
M  END
> <r_user_dG.exp>
-6.58301699393044

$$$$
32
  -OEChem-05162309453D
 Structure written by MMmdl.
 42 44  0     0  0  0  0  0  0999 V2000
    3.5631  -47.8126    6.2553 O   0  0  0  0  0  0  0  0  0  0  0  0
    3.0220  -48.8134    6.7746 C   0  0  0  0  0  0  0  0  0  0  0  0
    3.6456  -49.5539    7.5776 O   0  0  0  0  0  0  0  0  0  0  0  0
    1.6132  -49.1482    6.4568 C   0  0  0  0  0  0  0  0  0  0  0  0
   -0.2315  -50.4988    6.6095 C   0  0  0  0  0  0  0  0  0  0  0  0
   -1.1869  -51.5016    6.8846 C   0  0  0  0  0  0  0  0  0  0  0  0
   -2.4765  -51.4084    6.3236 C   0  0  0  0  0  0  0  0  0  0  0  0
   -2.8024  -50.3149    5.4953 C   0  0  0  0  0  0  0  0  0  0  0  0
   -1.8441  -49.3159    5.2323 C   0  0  0  0  0  0  0  0  0  0  0  0
   -0.5398  -49.3743    5.7791 C   0  0  0  0  0  0  0  0  0  0  0  0
    0.6317  -48.5299    5.7107 C   0  0  0  0  0  0  0  0  0  0  0  0
    0.7399  -47.2203    4.9660 C   0  0  0  0  0  0  0  0  0  0  0  0
    0.8620  -45.9947    5.8916 C   0  0  0  0  0  0  0  0  0  0  0  0
   -0.3438  -45.7995    6.8144 C   0  0  0  0  0  0  0  0  0  0  0  0
   -1.4784  -45.4115    6.0512 O   0  0  0  0  0  0  0  0  0  0  0  0
   -2.6600  -45.1948    6.7290 C   0  0  0  0  0  0  0  0  0  0  0  0
   -2.8553  -45.5250    8.0921 C   0  0  0  0  0  0  0  0  0  0  0  0
   -4.0865  -45.2606    8.7177 C   0  0  0  0  0  0  0  0  0  0  0  0
   -5.1349  -44.6543    8.0064 C   0  0  0  0  0  0  0  0  0  0  0  0
   -4.9501  -44.3373    6.6470 C   0  0  0  0  0  0  0  0  0  0  0  0
   -3.7260  -44.6100    6.0126 C   0  0  0  0  0  0  0  0  0  0  0  0
    1.0888  -50.3185    6.9933 N   0  0  0  0  0  0  0  0  0  0  0  0
   -6.4399  -44.3423    8.7154 C   0  0  0  0  0  0  0  0  0  0  0  0
    4.5285  -49.2230    7.6938 H   0  0  0  0  0  0  0  0  0  0  0  0
   -0.9308  -52.3354    7.5214 H   0  0  0  0  0  0  0  0  0  0  0  0
   -3.2126  -52.1720    6.5275 H   0  0  0  0  0  0  0  0  0  0  0  0
   -3.7888  -50.2428    5.0614 H   0  0  0  0  0  0  0  0  0  0  0  0
   -1.7205  -49.2857    4.1397 H   0  0  0  0  0  0  0  0  0  0  0  0
   -2.2824  -48.3681    5.5780 H   0  0  0  0  0  0  0  0  0  0  0  0
    1.6300  -47.2593    4.3208 H   0  0  0  0  0  0  0  0  0  0  0  0
   -0.1590  -47.0984    4.3438 H   0  0  0  0  0  0  0  0  0  0  0  0
    1.7601  -46.1179    6.5147 H   0  0  0  0  0  0  0  0  0  0  0  0
    0.9700  -45.0963    5.2662 H   0  0  0  0  0  0  0  0  0  0  0  0
   -0.5605  -46.7433    7.3362 H   0  0  0  0  0  0  0  0  0  0  0  0
   -0.1154  -45.0165    7.5525 H   0  0  0  0  0  0  0  0  0  0  0  0
   -2.0544  -45.9823    8.6541 H   0  0  0  0  0  0  0  0  0  0  0  0
   -4.2273  -45.5263    9.7550 H   0  0  0  0  0  0  0  0  0  0  0  0
   -5.7542  -43.8817    6.0882 H   0  0  0  0  0  0  0  0  0  0  0  0
   -3.6000  -44.3698    4.9672 H   0  0  0  0  0  0  0  0  0  0  0  0
   -6.3893  -43.3332    9.1503 H   0  0  0  0  0  0  0  0  0  0  0  0
   -7.2692  -44.3895    7.9943 H   0  0  0  0  0  0  0  0  0  0  0  0
   -6.6074  -45.0783    9.5155 H   0  0  0  0  0  0  0  0  0  0  0  0
  1  2  2  0  0  0  0
  2  3  1  0  0  0  0
  2  4  1  0  0  0  0
  4 11  1  0  0  0  0
  4 22  2  0  0  0  0
  5  6  2  0  0  0  0
  5 10  1  0  0  0  0
  5 22  1  0  0  0  0
  6  7  1  0  0  0  0
  7  8  2  0  0  0  0
  8  9  1  0  0  0  0
  9 10  1  0  0  0  0
 10 11  2  0  0  0  0
 11 12  1  0  0  0  0
 12 13  1  0  0  0  0
 13 14  1  0  0  0  0
 14 15  1  0  0  0  0
 15 16  1  0  0  0  0
 16 17  2  0  0  0  0
 16 21  1  0  0  0  0
 17 18  1  0  0  0  0
 18 19  2  0  0  0  0
 19 20  1  0  0  0  0
 19 23  1  0  0  0  0
 20 21  2  0  0  0  0
  3 24  1  0  0  0  0
  6 25  1  0  0  0  0
  7 26  1  0  0  0  0
  8 27  1  0  0  0  0
  9 28  1  0  0  0  0
  9 29  1  0  0  0  0
 12 30  1  0  0  0  0
 12 31  1  0  0  0  0
 13 32  1  0  0  0  0
 13 33  1  0  0  0  0
 14 34  1  0  0  0  0
 14 35  1  0  0  0  0
 17 36  1  0  0  0  0
 18 37  1  0  0  0  0
 20 38  1  0  0  0  0
 21 39  1  0  0  0  0
 23 40  1  0  0  0  0
 23 41  1  0  0  0  0
 23 42  1  0  0  0  0
M  END
> <r_user_dG.exp>
-6.58301699393044

$$$$
32
  -OEChem-05162309453D
 Structure written by MMmdl.
 42 44  0     0  0  0  0  0  0999 V2000
    3.5631  -47.8126    6.2553 O   0  0  0  0  0  0  0  0  0  0  0  0
    3.0220  -48.8134    6.7746 C   0  0  0  0  0  0  0  0  0  0  0  0
    3.6456  -49.5539    7.5776 O   0  0  0  0  0  0  0  0  0  0  0  0
    1.6132  -49.1482    6.4568 C   0  0  0  0  0  0  0  0  0  0  0  0
   -0.2315  -50.4988    6.6095 C   0  0  0  0  0  0  0  0  0  0  0  0
   -1.1869  -51.5016    6.8846 C   0  0  0  0  0  0  0  0  0  0  0  0
   -2.4765  -51.4084    6.3236 C   0  0  0  0  0  0  0  0  0  0  0  0
   -2.8024  -50.3149    5.4953 C   0  0  0  0  0  0  0  0  0  0  0  0
   -1.8441  -49.3159    5.2323 C   0  0  0  0  0  0  0  0  0  0  0  0
   -0.5398  -49.3743    5.7791 C   0  0  0  0  0  0  0  0  0  0  0  0
    0.6317  -48.5299    5.7107 C   0  0  0  0  0  0  0  0  0  0  0  0
    0.7399  -47.2203    4.9660 C   0  0  0  0  0  0  0  0  0  0  0  0
    0.8620  -45.9947    5.8916 C   0  0  0  0  0  0  0  0  0  0  0  0
   -0.3438  -45.7995    6.8144 C   0  0  0  0  0  0  0  0  0  0  0  0
   -1.4784  -45.4115    6.0512 O   0  0  0  0  0  0  0  0  0  0  0  0
   -2.6600  -45.1948    6.7290 C   0  0  0  0  0  0  0  0  0  0  0  0
   -2.8553  -45.5250    8.0921 C   0  0  0  0  0  0  0  0  0  0  0  0
   -4.0865  -45.2606    8.7177 C   0  0  0  0  0  0  0  0  0  0  0  0
   -5.1349  -44.6543    8.0064 C   0  0  0  0  0  0  0  0  0  0  0  0
   -4.9501  -44.3373    6.6470 C   0  0  0  0  0  0  0  0  0  0  0  0
   -3.7260  -44.6100    6.0126 C   0  0  0  0  0  0  0  0  0  0  0  0
    1.0888  -50.3185    6.9933 N   0  0  0  0  0  0  0  0  0  0  0  0
   -6.4399  -44.3423    8.7154 C   0  0  0  0  0  0  0  0  0  0  0  0
    2.9429  -47.3791    5.6809 H   0  0  0  0  0  0  0  0  0  0  0  0
    3.0772  -50.2582    7.8663 H   0  0  0  0  0  0  0  0  0  0  0  0
   -0.9308  -52.3354    7.5214 H   0  0  0  0  0  0  0  0  0  0  0  0
   -3.2126  -52.1720    6.5275 H   0  0  0  0  0  0  0  0  0  0  0  0
   -3.7888  -50.2428    5.0614 H   0  0  0  0  0  0  0  0  0  0  0  0
   -2.1116  -48.4843    4.5972 H   0  0  0  0  0  0  0  0  0  0  0  0
    1.6300  -47.2593    4.3208 H   0  0  0  0  0  0  0  0  0  0  0  0
   -0.1590  -47.0984    4.3438 H   0  0  0  0  0  0  0  0  0  0  0  0
    1.7601  -46.1179    6.5147 H   0  0  0  0  0  0  0  0  0  0  0  0
    0.9700  -45.0963    5.2662 H   0  0  0  0  0  0  0  0  0  0  0  0
   -0.5605  -46.7433    7.3362 H   0  0  0  0  0  0  0  0  0  0  0  0
   -0.1154  -45.0165    7.5525 H   0  0  0  0  0  0  0  0  0  0  0  0
   -2.0544  -45.9823    8.6541 H   0  0  0  0  0  0  0  0  0  0  0  0
   -4.2273  -45.5263    9.7550 H   0  0  0  0  0  0  0  0  0  0  0  0
   -5.7542  -43.8817    6.0882 H   0  0  0  0  0  0  0  0  0  0  0  0
   -3.6000  -44.3698    4.9672 H   0  0  0  0  0  0  0  0  0  0  0  0
   -6.3893  -43.3332    9.1503 H   0  0  0  0  0  0  0  0  0  0  0  0
   -7.2692  -44.3895    7.9943 H   0  0  0  0  0  0  0  0  0  0  0  0
   -6.6074  -45.0783    9.5155 H   0  0  0  0  0  0  0  0  0  0  0  0
  1  2  1  0  0  0  0
  2  3  1  0  0  0  0
  2  4  2  0  0  0  0
  4 11  1  0  0  0  0
  4 22  1  0  0  0  0
  5  6  1  0  0  0  0
  5 10  1  0  0  0  0
  5 22  2  0  0  0  0
  6  7  2  0  0  0  0
  7  8  1  0  0  0  0
  8  9  2  0  0  0  0
  9 10  1  0  0  0  0
 10 11  2  0  0  0  0
 11 12  1  0  0  0  0
 12 13  1  0  0  0  0
 13 14  1  0  0  0  0
 14 15  1  0  0  0  0
 15 16  1  0  0  0  0
 16 17  2  0  0  0  0
 16 21  1  0  0  0  0
 17 18  1  0  0  0  0
 18 19  2  0  0  0  0
 19 20  1  0  0  0  0
 19 23  1  0  0  0  0
 20 21  2  0  0  0  0
  1 24  1  0  0  0  0
  3 25  1  0  0  0  0
  6 26  1  0  0  0  0
  7 27  1  0  0  0  0
  8 28  1  0  0  0  0
  9 29  1  0  0  0  0
 12 30  1  0  0  0  0
 12 31  1  0  0  0  0
 13 32  1  0  0  0  0
 13 33  1  0  0  0  0
 14 34  1  0  0  0  0
 14 35  1  0  0  0  0
 17 36  1  0  0  0  0
 18 37  1  0  0  0  0
 20 38  1  0  0  0  0
 21 39  1  0  0  0  0
 23 40  1  0  0  0  0
 23 41  1  0  0  0  0
 23 42  1  0  0  0  0
M  END
> <r_user_dG.exp>
-6.58301699393044

$$$$
