54
  -OEChem-05162309453D
 Structure written by MMmdl.
 45 48  0     0  0  0  0  0  0999 V2000
    3.6008  -50.1426    7.0953 O   0  0  0  0  0  0  0  0  0  0  0  0
    2.9945  -49.0877    6.7720 C   0  0  0  0  0  0  0  0  0  0  0  0
    3.5637  -47.9827    6.7380 O   0  0  0  0  0  0  0  0  0  0  0  0
    1.5546  -49.1833    6.4462 C   0  0  0  0  0  0  0  0  0  0  0  0
   -0.4163  -50.3312    6.3666 C   0  0  0  0  0  0  0  0  0  0  0  0
   -1.4599  -51.2734    6.4649 C   0  0  0  0  0  0  0  0  0  0  0  0
   -2.7720  -50.8647    6.1354 C   0  0  0  0  0  0  0  0  0  0  0  0
   -3.0153  -49.5600    5.6849 C   0  0  0  0  0  0  0  0  0  0  0  0
   -1.9719  -48.6268    5.5970 C   0  0  0  0  0  0  0  0  0  0  0  0
   -0.6362  -48.9893    5.9458 C   0  0  0  0  0  0  0  0  0  0  0  0
    0.6049  -48.2698    6.0108 C   0  0  0  0  0  0  0  0  0  0  0  0
    0.7928  -46.8042    5.7026 C   0  0  0  0  0  0  0  0  0  0  0  0
    0.7659  -45.9154    6.9617 C   0  0  0  0  0  0  0  0  0  0  0  0
   -0.4547  -46.1428    7.8719 C   0  0  0  0  0  0  0  0  0  0  0  0
   -1.6482  -45.7967    7.1768 O   0  0  0  0  0  0  0  0  0  0  0  0
   -2.8653  -46.0089    7.8013 C   0  0  0  0  0  0  0  0  0  0  0  0
   -5.3919  -46.3961    9.0422 C   0  0  0  0  0  0  0  0  0  0  0  0
   -4.2120  -46.7521    9.7091 C   0  0  0  0  0  0  0  0  0  0  0  0
   -2.9640  -46.5642    9.0973 C   0  0  0  0  0  0  0  0  0  0  0  0
   -4.0633  -51.9831    6.3229 Cl  0  0  0  0  0  0  0  0  0  0  0  0
   -5.3220  -45.8538    7.7419 C   0  0  0  0  0  0  0  0  0  0  0  0
   -4.0586  -45.6657    7.1236 C   0  0  0  0  0  0  0  0  0  0  0  0
   -4.0089  -45.1257    5.8153 C   0  0  0  0  0  0  0  0  0  0  0  0
   -5.1957  -44.7666    5.1494 C   0  0  0  0  0  0  0  0  0  0  0  0
   -6.4462  -44.9616    5.7683 C   0  0  0  0  0  0  0  0  0  0  0  0
   -6.5086  -45.5045    7.0675 C   0  0  0  0  0  0  0  0  0  0  0  0
    0.9431  -50.4141    6.6339 N   0  0  0  0  0  0  0  0  0  0  0  0
    4.4749  -48.0876    6.9854 H   0  0  0  0  0  0  0  0  0  0  0  0
   -1.2612  -52.2855    6.7850 H   0  0  0  0  0  0  0  0  0  0  0  0
   -4.0166  -49.2702    5.4025 H   0  0  0  0  0  0  0  0  0  0  0  0
   -2.1817  -47.6219    5.2614 H   0  0  0  0  0  0  0  0  0  0  0  0
    1.7633  -46.6730    5.2017 H   0  0  0  0  0  0  0  0  0  0  0  0
   -0.0143  -46.4815    5.0285 H   0  0  0  0  0  0  0  0  0  0  0  0
    1.6747  -46.1194    7.5469 H   0  0  0  0  0  0  0  0  0  0  0  0
    0.7650  -44.8633    6.6407 H   0  0  0  0  0  0  0  0  0  0  0  0
   -0.4980  -47.2018    8.1663 H   0  0  0  0  0  0  0  0  0  0  0  0
   -0.3612  -45.5159    8.7709 H   0  0  0  0  0  0  0  0  0  0  0  0
   -6.3497  -46.5362    9.5212 H   0  0  0  0  0  0  0  0  0  0  0  0
   -4.2640  -47.1744   10.7018 H   0  0  0  0  0  0  0  0  0  0  0  0
   -2.0651  -46.8480    9.6243 H   0  0  0  0  0  0  0  0  0  0  0  0
   -3.0558  -44.9888    5.3263 H   0  0  0  0  0  0  0  0  0  0  0  0
   -5.1475  -44.3393    4.1587 H   0  0  0  0  0  0  0  0  0  0  0  0
   -7.3548  -44.6957    5.2485 H   0  0  0  0  0  0  0  0  0  0  0  0
   -7.4655  -45.6527    7.5458 H   0  0  0  0  0  0  0  0  0  0  0  0
    1.4165  -51.2465    6.9221 H   0  0  0  0  0  0  0  0  0  0  0  0
  1  2  2  0  0  0  0
  2  3  1  0  0  0  0
  2  4  1  0  0  0  0
  4 11  2  0  0  0  0
  4 27  1  0  0  0  0
  5  6  2  0  0  0  0
  5 10  1  0  0  0  0
  5 27  1  0  0  0  0
  6  7  1  0  0  0  0
  7  8  2  0  0  0  0
  7 20  1  0  0  0  0
  8  9  1  0  0  0  0
  9 10  2  0  0  0  0
 10 11  1  0  0  0  0
 11 12  1  0  0  0  0
 12 13  1  0  0  0  0
 13 14  1  0  0  0  0
 14 15  1  0  0  0  0
 15 16  1  0  0  0  0
 16 19  2  0  0  0  0
 16 22  1  0  0  0  0
 17 18  2  0  0  0  0
 17 21  1  0  0  0  0
 18 19  1  0  0  0  0
 21 22  2  0  0  0  0
 21 26  1  0  0  0  0
 22 23  1  0  0  0  0
 23 24  2  0  0  0  0
 24 25  1  0  0  0  0
 25 26  2  0  0  0  0
  3 28  1  0  0  0  0
  6 29  1  0  0  0  0
  8 30  1  0  0  0  0
  9 31  1  0  0  0  0
 12 32  1  0  0  0  0
 12 33  1  0  0  0  0
 13 34  1  0  0  0  0
 13 35  1  0  0  0  0
 14 36  1  0  0  0  0
 14 37  1  0  0  0  0
 17 38  1  0  0  0  0
 18 39  1  0  0  0  0
 19 40  1  0  0  0  0
 23 41  1  0  0  0  0
 24 42  1  0  0  0  0
 25 43  1  0  0  0  0
 26 44  1  0  0  0  0
 27 45  1  0  0  0  0
M  END
> <r_user_dG.exp>
-9.77997627425646

$$$$
54
  -OEChem-05162309453D
 Structure written by MMmdl.
 45 48  0     1  0  0  0  0  0999 V2000
    3.6008  -50.1426    7.0953 O   0  0  0  0  0  0  0  0  0  0  0  0
    2.9945  -49.0877    6.7720 C   0  0  0  0  0  0  0  0  0  0  0  0
    3.5637  -47.9827    6.7380 O   0  0  0  0  0  0  0  0  0  0  0  0
    1.5546  -49.1833    6.4462 C   0  0  0  0  0  0  0  0  0  0  0  0
   -0.4163  -50.3312    6.3666 C   0  0  0  0  0  0  0  0  0  0  0  0
   -1.4599  -51.2734    6.4649 C   0  0  0  0  0  0  0  0  0  0  0  0
   -2.7720  -50.8647    6.1354 C   0  0  0  0  0  0  0  0  0  0  0  0
   -3.0153  -49.5600    5.6849 C   0  0  0  0  0  0  0  0  0  0  0  0
   -1.9719  -48.6268    5.5970 C   0  0  0  0  0  0  0  0  0  0  0  0
   -0.6362  -48.9893    5.9458 C   0  0  0  0  0  0  0  0  0  0  0  0
    0.6049  -48.2698    6.0108 C   0  0  3  0  0  0  0  0  0  0  0  0
    0.7928  -46.8042    5.7026 C   0  0  0  0  0  0  0  0  0  0  0  0
    0.7659  -45.9154    6.9617 C   0  0  0  0  0  0  0  0  0  0  0  0
   -0.4547  -46.1428    7.8719 C   0  0  0  0  0  0  0  0  0  0  0  0
   -1.6482  -45.7967    7.1768 O   0  0  0  0  0  0  0  0  0  0  0  0
   -2.8653  -46.0089    7.8013 C   0  0  0  0  0  0  0  0  0  0  0  0
   -5.3919  -46.3961    9.0422 C   0  0  0  0  0  0  0  0  0  0  0  0
   -4.2120  -46.7521    9.7091 C   0  0  0  0  0  0  0  0  0  0  0  0
   -2.9640  -46.5642    9.0973 C   0  0  0  0  0  0  0  0  0  0  0  0
   -4.0633  -51.9831    6.3229 Cl  0  0  0  0  0  0  0  0  0  0  0  0
   -5.3220  -45.8538    7.7419 C   0  0  0  0  0  0  0  0  0  0  0  0
   -4.0586  -45.6657    7.1236 C   0  0  0  0  0  0  0  0  0  0  0  0
   -4.0089  -45.1257    5.8153 C   0  0  0  0  0  0  0  0  0  0  0  0
   -5.1957  -44.7666    5.1494 C   0  0  0  0  0  0  0  0  0  0  0  0
   -6.4462  -44.9616    5.7683 C   0  0  0  0  0  0  0  0  0  0  0  0
   -6.5086  -45.5045    7.0675 C   0  0  0  0  0  0  0  0  0  0  0  0
    0.9431  -50.4141    6.6339 N   0  0  0  0  0  0  0  0  0  0  0  0
    4.4749  -48.0876    6.9854 H   0  0  0  0  0  0  0  0  0  0  0  0
   -1.2612  -52.2855    6.7850 H   0  0  0  0  0  0  0  0  0  0  0  0
   -4.0166  -49.2702    5.4025 H   0  0  0  0  0  0  0  0  0  0  0  0
   -2.1817  -47.6219    5.2614 H   0  0  0  0  0  0  0  0  0  0  0  0
    0.8212  -48.5278    4.9636 H   0  0  0  0  0  0  0  0  0  0  0  0
    1.7633  -46.6730    5.2017 H   0  0  0  0  0  0  0  0  0  0  0  0
   -0.0143  -46.4815    5.0285 H   0  0  0  0  0  0  0  0  0  0  0  0
    1.6747  -46.1194    7.5469 H   0  0  0  0  0  0  0  0  0  0  0  0
    0.7650  -44.8633    6.6407 H   0  0  0  0  0  0  0  0  0  0  0  0
   -0.4980  -47.2018    8.1663 H   0  0  0  0  0  0  0  0  0  0  0  0
   -0.3612  -45.5159    8.7709 H   0  0  0  0  0  0  0  0  0  0  0  0
   -6.3497  -46.5362    9.5212 H   0  0  0  0  0  0  0  0  0  0  0  0
   -4.2640  -47.1744   10.7018 H   0  0  0  0  0  0  0  0  0  0  0  0
   -2.0651  -46.8480    9.6243 H   0  0  0  0  0  0  0  0  0  0  0  0
   -3.0558  -44.9888    5.3263 H   0  0  0  0  0  0  0  0  0  0  0  0
   -5.1475  -44.3393    4.1587 H   0  0  0  0  0  0  0  0  0  0  0  0
   -7.3548  -44.6957    5.2485 H   0  0  0  0  0  0  0  0  0  0  0  0
   -7.4655  -45.6527    7.5458 H   0  0  0  0  0  0  0  0  0  0  0  0
  1  2  2  0  0  0  0
  2  3  1  0  0  0  0
  2  4  1  0  0  0  0
  4 11  1  0  0  0  0
  4 27  2  0  0  0  0
  5  6  2  0  0  0  0
  5 10  1  0  0  0  0
  5 27  1  0  0  0  0
  6  7  1  0  0  0  0
  7  8  2  0  0  0  0
  7 20  1  0  0  0  0
  8  9  1  0  0  0  0
  9 10  2  0  0  0  0
 10 11  1  0  0  0  0
 11 12  1  0  0  0  0
 12 13  1  0  0  0  0
 13 14  1  0  0  0  0
 14 15  1  0  0  0  0
 15 16  1  0  0  0  0
 16 19  2  0  0  0  0
 16 22  1  0  0  0  0
 17 18  2  0  0  0  0
 17 21  1  0  0  0  0
 18 19  1  0  0  0  0
 21 22  2  0  0  0  0
 21 26  1  0  0  0  0
 22 23  1  0  0  0  0
 23 24  2  0  0  0  0
 24 25  1  0  0  0  0
 25 26  2  0  0  0  0
  3 28  1  0  0  0  0
  6 29  1  0  0  0  0
  8 30  1  0  0  0  0
  9 31  1  0  0  0  0
 11 32  1  0  0  0  0
 12 33  1  0  0  0  0
 12 34  1  0  0  0  0
 13 35  1  0  0  0  0
 13 36  1  0  0  0  0
 14 37  1  0  0  0  0
 14 38  1  0  0  0  0
 17 39  1  0  0  0  0
 18 40  1  0  0  0  0
 19 41  1  0  0  0  0
 23 42  1  0  0  0  0
 24 43  1  0  0  0  0
 25 44  1  0  0  0  0
 26 45  1  0  0  0  0
M  END
> <r_user_dG.exp>
-9.77997627425646

$$$$
54
  -OEChem-05162309453D
 Structure written by MMmdl.
 45 48  0     1  0  0  0  0  0999 V2000
    3.6008  -50.1426    7.0953 O   0  0  0  0  0  0  0  0  0  0  0  0
    2.9945  -49.0877    6.7720 C   0  0  0  0  0  0  0  0  0  0  0  0
    3.5637  -47.9827    6.7380 O   0  0  0  0  0  0  0  0  0  0  0  0
    1.5546  -49.1833    6.4462 C   0  0  3  0  0  0  0  0  0  0  0  0
   -0.4163  -50.3312    6.3666 C   0  0  0  0  0  0  0  0  0  0  0  0
   -1.4599  -51.2734    6.4649 C   0  0  0  0  0  0  0  0  0  0  0  0
   -2.7720  -50.8647    6.1354 C   0  0  0  0  0  0  0  0  0  0  0  0
   -3.0153  -49.5600    5.6849 C   0  0  0  0  0  0  0  0  0  0  0  0
   -1.9719  -48.6268    5.5970 C   0  0  0  0  0  0  0  0  0  0  0  0
   -0.6362  -48.9893    5.9458 C   0  0  0  0  0  0  0  0  0  0  0  0
    0.6049  -48.2698    6.0108 C   0  0  0  0  0  0  0  0  0  0  0  0
    0.7928  -46.8042    5.7026 C   0  0  0  0  0  0  0  0  0  0  0  0
    0.7659  -45.9154    6.9617 C   0  0  0  0  0  0  0  0  0  0  0  0
   -0.4547  -46.1428    7.8719 C   0  0  0  0  0  0  0  0  0  0  0  0
   -1.6482  -45.7967    7.1768 O   0  0  0  0  0  0  0  0  0  0  0  0
   -2.8653  -46.0089    7.8013 C   0  0  0  0  0  0  0  0  0  0  0  0
   -5.3919  -46.3961    9.0422 C   0  0  0  0  0  0  0  0  0  0  0  0
   -4.2120  -46.7521    9.7091 C   0  0  0  0  0  0  0  0  0  0  0  0
   -2.9640  -46.5642    9.0973 C   0  0  0  0  0  0  0  0  0  0  0  0
   -4.0633  -51.9831    6.3229 Cl  0  0  0  0  0  0  0  0  0  0  0  0
   -5.3220  -45.8538    7.7419 C   0  0  0  0  0  0  0  0  0  0  0  0
   -4.0586  -45.6657    7.1236 C   0  0  0  0  0  0  0  0  0  0  0  0
   -4.0089  -45.1257    5.8153 C   0  0  0  0  0  0  0  0  0  0  0  0
   -5.1957  -44.7666    5.1494 C   0  0  0  0  0  0  0  0  0  0  0  0
   -6.4462  -44.9616    5.7683 C   0  0  0  0  0  0  0  0  0  0  0  0
   -6.5086  -45.5045    7.0675 C   0  0  0  0  0  0  0  0  0  0  0  0
    0.9431  -50.4141    6.6339 N   0  0  0  0  0  0  0  0  0  0  0  0
    4.4749  -48.0876    6.9854 H   0  0  0  0  0  0  0  0  0  0  0  0
    1.7955  -49.4476    5.4060 H   0  0  0  0  0  0  0  0  0  0  0  0
   -1.2612  -52.2855    6.7850 H   0  0  0  0  0  0  0  0  0  0  0  0
   -4.0166  -49.2702    5.4025 H   0  0  0  0  0  0  0  0  0  0  0  0
   -2.1817  -47.6219    5.2614 H   0  0  0  0  0  0  0  0  0  0  0  0
    1.7633  -46.6730    5.2017 H   0  0  0  0  0  0  0  0  0  0  0  0
   -0.0143  -46.4815    5.0285 H   0  0  0  0  0  0  0  0  0  0  0  0
    1.6747  -46.1194    7.5469 H   0  0  0  0  0  0  0  0  0  0  0  0
    0.7650  -44.8633    6.6407 H   0  0  0  0  0  0  0  0  0  0  0  0
   -0.4980  -47.2018    8.1663 H   0  0  0  0  0  0  0  0  0  0  0  0
   -0.3612  -45.5159    8.7709 H   0  0  0  0  0  0  0  0  0  0  0  0
   -6.3497  -46.5362    9.5212 H   0  0  0  0  0  0  0  0  0  0  0  0
   -4.2640  -47.1744   10.7018 H   0  0  0  0  0  0  0  0  0  0  0  0
   -2.0651  -46.8480    9.6243 H   0  0  0  0  0  0  0  0  0  0  0  0
   -3.0558  -44.9888    5.3263 H   0  0  0  0  0  0  0  0  0  0  0  0
   -5.1475  -44.3393    4.1587 H   0  0  0  0  0  0  0  0  0  0  0  0
   -7.3548  -44.6957    5.2485 H   0  0  0  0  0  0  0  0  0  0  0  0
   -7.4655  -45.6527    7.5458 H   0  0  0  0  0  0  0  0  0  0  0  0
  1  2  2  0  0  0  0
  2  3  1  0  0  0  0
  2  4  1  0  0  0  0
  4 11  1  0  0  0  0
  4 27  1  0  0  0  0
  5  6  1  0  0  0  0
  5 10  1  0  0  0  0
  5 27  2  0  0  0  0
  6  7  2  0  0  0  0
  7  8  1  0  0  0  0
  7 20  1  0  0  0  0
  8  9  2  0  0  0  0
  9 10  1  0  0  0  0
 10 11  2  0  0  0  0
 11 12  1  0  0  0  0
 12 13  1  0  0  0  0
 13 14  1  0  0  0  0
 14 15  1  0  0  0  0
 15 16  1  0  0  0  0
 16 19  2  0  0  0  0
 16 22  1  0  0  0  0
 17 18  2  0  0  0  0
 17 21  1  0  0  0  0
 18 19  1  0  0  0  0
 21 22  2  0  0  0  0
 21 26  1  0  0  0  0
 22 23  1  0  0  0  0
 23 24  2  0  0  0  0
 24 25  1  0  0  0  0
 25 26  2  0  0  0  0
  3 28  1  0  0  0  0
  4 29  1  0  0  0  0
  6 30  1  0  0  0  0
  8 31  1  0  0  0  0
  9 32  1  0  0  0  0
 12 33  1  0  0  0  0
 12 34  1  0  0  0  0
 13 35  1  0  0  0  0
 13 36  1  0  0  0  0
 14 37  1  0  0  0  0
 14 38  1  0  0  0  0
 17 39  1  0  0  0  0
 18 40  1  0  0  0  0
 19 41  1  0  0  0  0
 23 42  1  0  0  0  0
 24 43  1  0  0  0  0
 25 44  1  0  0  0  0
 26 45  1  0  0  0  0
M  END
> <r_user_dG.exp>
-9.77997627425646

$$$$
54
  -OEChem-05162309453D
 Structure written by MMmdl.
 45 48  0     1  0  0  0  0  0999 V2000
    3.6008  -50.1426    7.0953 O   0  0  0  0  0  0  0  0  0  0  0  0
    2.9945  -49.0877    6.7720 C   0  0  0  0  0  0  0  0  0  0  0  0
    3.5637  -47.9827    6.7380 O   0  0  0  0  0  0  0  0  0  0  0  0
    1.5546  -49.1833    6.4462 C   0  0  0  0  0  0  0  0  0  0  0  0
   -0.4163  -50.3312    6.3666 C   0  0  0  0  0  0  0  0  0  0  0  0
   -1.4599  -51.2734    6.4649 C   0  0  0  0  0  0  0  0  0  0  0  0
   -2.7720  -50.8647    6.1354 C   0  0  3  0  0  0  0  0  0  0  0  0
   -3.0153  -49.5600    5.6849 C   0  0  0  0  0  0  0  0  0  0  0  0
   -1.9719  -48.6268    5.5970 C   0  0  0  0  0  0  0  0  0  0  0  0
   -0.6362  -48.9893    5.9458 C   0  0  0  0  0  0  0  0  0  0  0  0
    0.6049  -48.2698    6.0108 C   0  0  0  0  0  0  0  0  0  0  0  0
    0.7928  -46.8042    5.7026 C   0  0  0  0  0  0  0  0  0  0  0  0
    0.7659  -45.9154    6.9617 C   0  0  0  0  0  0  0  0  0  0  0  0
   -0.4547  -46.1428    7.8719 C   0  0  0  0  0  0  0  0  0  0  0  0
   -1.6482  -45.7967    7.1768 O   0  0  0  0  0  0  0  0  0  0  0  0
   -2.8653  -46.0089    7.8013 C   0  0  0  0  0  0  0  0  0  0  0  0
   -5.3919  -46.3961    9.0422 C   0  0  0  0  0  0  0  0  0  0  0  0
   -4.2120  -46.7521    9.7091 C   0  0  0  0  0  0  0  0  0  0  0  0
   -2.9640  -46.5642    9.0973 C   0  0  0  0  0  0  0  0  0  0  0  0
   -4.0633  -51.9831    6.3229 Cl  0  0  0  0  0  0  0  0  0  0  0  0
   -5.3220  -45.8538    7.7419 C   0  0  0  0  0  0  0  0  0  0  0  0
   -4.0586  -45.6657    7.1236 C   0  0  0  0  0  0  0  0  0  0  0  0
   -4.0089  -45.1257    5.8153 C   0  0  0  0  0  0  0  0  0  0  0  0
   -5.1957  -44.7666    5.1494 C   0  0  0  0  0  0  0  0  0  0  0  0
   -6.4462  -44.9616    5.7683 C   0  0  0  0  0  0  0  0  0  0  0  0
   -6.5086  -45.5045    7.0675 C   0  0  0  0  0  0  0  0  0  0  0  0
    0.9431  -50.4141    6.6339 N   0  0  0  0  0  0  0  0  0  0  0  0
    4.4749  -48.0876    6.9854 H   0  0  0  0  0  0  0  0  0  0  0  0
   -1.2612  -52.2855    6.7850 H   0  0  0  0  0  0  0  0  0  0  0  0
   -2.6236  -51.2018    5.0989 H   0  0  0  0  0  0  0  0  0  0  0  0
   -4.0166  -49.2702    5.4025 H   0  0  0  0  0  0  0  0  0  0  0  0
   -2.1817  -47.6219    5.2614 H   0  0  0  0  0  0  0  0  0  0  0  0
    1.7633  -46.6730    5.2017 H   0  0  0  0  0  0  0  0  0  0  0  0
   -0.0143  -46.4815    5.0285 H   0  0  0  0  0  0  0  0  0  0  0  0
    1.6747  -46.1194    7.5469 H   0  0  0  0  0  0  0  0  0  0  0  0
    0.7650  -44.8633    6.6407 H   0  0  0  0  0  0  0  0  0  0  0  0
   -0.4980  -47.2018    8.1663 H   0  0  0  0  0  0  0  0  0  0  0  0
   -0.3612  -45.5159    8.7709 H   0  0  0  0  0  0  0  0  0  0  0  0
   -6.3497  -46.5362    9.5212 H   0  0  0  0  0  0  0  0  0  0  0  0
   -4.2640  -47.1744   10.7018 H   0  0  0  0  0  0  0  0  0  0  0  0
   -2.0651  -46.8480    9.6243 H   0  0  0  0  0  0  0  0  0  0  0  0
   -3.0558  -44.9888    5.3263 H   0  0  0  0  0  0  0  0  0  0  0  0
   -5.1475  -44.3393    4.1587 H   0  0  0  0  0  0  0  0  0  0  0  0
   -7.3548  -44.6957    5.2485 H   0  0  0  0  0  0  0  0  0  0  0  0
   -7.4655  -45.6527    7.5458 H   0  0  0  0  0  0  0  0  0  0  0  0
  1  2  2  0  0  0  0
  2  3  1  0  0  0  0
  2  4  1  0  0  0  0
  4 11  1  0  0  0  0
  4 27  2  0  0  0  0
  5  6  2  0  0  0  0
  5 10  1  0  0  0  0
  5 27  1  0  0  0  0
  6  7  1  0  0  0  0
  7  8  1  0  0  0  0
  7 20  1  0  0  0  0
  8  9  2  0  0  0  0
  9 10  1  0  0  0  0
 10 11  2  0  0  0  0
 11 12  1  0  0  0  0
 12 13  1  0  0  0  0
 13 14  1  0  0  0  0
 14 15  1  0  0  0  0
 15 16  1  0  0  0  0
 16 19  2  0  0  0  0
 16 22  1  0  0  0  0
 17 18  2  0  0  0  0
 17 21  1  0  0  0  0
 18 19  1  0  0  0  0
 21 22  2  0  0  0  0
 21 26  1  0  0  0  0
 22 23  1  0  0  0  0
 23 24  2  0  0  0  0
 24 25  1  0  0  0  0
 25 26  2  0  0  0  0
  3 28  1  0  0  0  0
  6 29  1  0  0  0  0
  7 30  1  0  0  0  0
  8 31  1  0  0  0  0
  9 32  1  0  0  0  0
 12 33  1  0  0  0  0
 12 34  1  0  0  0  0
 13 35  1  0  0  0  0
 13 36  1  0  0  0  0
 14 37  1  0  0  0  0
 14 38  1  0  0  0  0
 17 39  1  0  0  0  0
 18 40  1  0  0  0  0
 19 41  1  0  0  0  0
 23 42  1  0  0  0  0
 24 43  1  0  0  0  0
 25 44  1  0  0  0  0
 26 45  1  0  0  0  0
M  END
> <r_user_dG.exp>
-9.77997627425646

$$$$
54
  -OEChem-05162309453D
 Structure written by MMmdl.
 45 48  0     1  0  0  0  0  0999 V2000
    3.6008  -50.1426    7.0953 O   0  0  0  0  0  0  0  0  0  0  0  0
    2.9945  -49.0877    6.7720 C   0  0  0  0  0  0  0  0  0  0  0  0
    3.5637  -47.9827    6.7380 O   0  0  0  0  0  0  0  0  0  0  0  0
    1.5546  -49.1833    6.4462 C   0  0  0  0  0  0  0  0  0  0  0  0
   -0.4163  -50.3312    6.3666 C   0  0  0  0  0  0  0  0  0  0  0  0
   -1.4599  -51.2734    6.4649 C   0  0  0  0  0  0  0  0  0  0  0  0
   -2.7720  -50.8647    6.1354 C   0  0  0  0  0  0  0  0  0  0  0  0
   -3.0153  -49.5600    5.6849 C   0  0  0  0  0  0  0  0  0  0  0  0
   -1.9719  -48.6268    5.5970 C   0  0  0  0  0  0  0  0  0  0  0  0
   -0.6362  -48.9893    5.9458 C   0  0  3  0  0  0  0  0  0  0  0  0
    0.6049  -48.2698    6.0108 C   0  0  0  0  0  0  0  0  0  0  0  0
    0.7928  -46.8042    5.7026 C   0  0  0  0  0  0  0  0  0  0  0  0
    0.7659  -45.9154    6.9617 C   0  0  0  0  0  0  0  0  0  0  0  0
   -0.4547  -46.1428    7.8719 C   0  0  0  0  0  0  0  0  0  0  0  0
   -1.6482  -45.7967    7.1768 O   0  0  0  0  0  0  0  0  0  0  0  0
   -2.8653  -46.0089    7.8013 C   0  0  0  0  0  0  0  0  0  0  0  0
   -5.3919  -46.3961    9.0422 C   0  0  0  0  0  0  0  0  0  0  0  0
   -4.2120  -46.7521    9.7091 C   0  0  0  0  0  0  0  0  0  0  0  0
   -2.9640  -46.5642    9.0973 C   0  0  0  0  0  0  0  0  0  0  0  0
   -4.0633  -51.9831    6.3229 Cl  0  0  0  0  0  0  0  0  0  0  0  0
   -5.3220  -45.8538    7.7419 C   0  0  0  0  0  0  0  0  0  0  0  0
   -4.0586  -45.6657    7.1236 C   0  0  0  0  0  0  0  0  0  0  0  0
   -4.0089  -45.1257    5.8153 C   0  0  0  0  0  0  0  0  0  0  0  0
   -5.1957  -44.7666    5.1494 C   0  0  0  0  0  0  0  0  0  0  0  0
   -6.4462  -44.9616    5.7683 C   0  0  0  0  0  0  0  0  0  0  0  0
   -6.5086  -45.5045    7.0675 C   0  0  0  0  0  0  0  0  0  0  0  0
    0.9431  -50.4141    6.6339 N   0  0  0  0  0  0  0  0  0  0  0  0
    4.4749  -48.0876    6.9854 H   0  0  0  0  0  0  0  0  0  0  0  0
   -1.2612  -52.2855    6.7850 H   0  0  0  0  0  0  0  0  0  0  0  0
   -4.0166  -49.2702    5.4025 H   0  0  0  0  0  0  0  0  0  0  0  0
   -2.1817  -47.6219    5.2614 H   0  0  0  0  0  0  0  0  0  0  0  0
   -0.4296  -49.2716    4.9029 H   0  0  0  0  0  0  0  0  0  0  0  0
    1.7633  -46.6730    5.2017 H   0  0  0  0  0  0  0  0  0  0  0  0
   -0.0143  -46.4815    5.0285 H   0  0  0  0  0  0  0  0  0  0  0  0
    1.6747  -46.1194    7.5469 H   0  0  0  0  0  0  0  0  0  0  0  0
    0.7650  -44.8633    6.6407 H   0  0  0  0  0  0  0  0  0  0  0  0
   -0.4980  -47.2018    8.1663 H   0  0  0  0  0  0  0  0  0  0  0  0
   -0.3612  -45.5159    8.7709 H   0  0  0  0  0  0  0  0  0  0  0  0
   -6.3497  -46.5362    9.5212 H   0  0  0  0  0  0  0  0  0  0  0  0
   -4.2640  -47.1744   10.7018 H   0  0  0  0  0  0  0  0  0  0  0  0
   -2.0651  -46.8480    9.6243 H   0  0  0  0  0  0  0  0  0  0  0  0
   -3.0558  -44.9888    5.3263 H   0  0  0  0  0  0  0  0  0  0  0  0
   -5.1475  -44.3393    4.1587 H   0  0  0  0  0  0  0  0  0  0  0  0
   -7.3548  -44.6957    5.2485 H   0  0  0  0  0  0  0  0  0  0  0  0
   -7.4655  -45.6527    7.5458 H   0  0  0  0  0  0  0  0  0  0  0  0
  1  2  2  0  0  0  0
  2  3  1  0  0  0  0
  2  4  1  0  0  0  0
  4 11  2  0  0  0  0
  4 27  1  0  0  0  0
  5  6  1  0  0  0  0
  5 10  1  0  0  0  0
  5 27  2  0  0  0  0
  6  7  2  0  0  0  0
  7  8  1  0  0  0  0
  7 20  1  0  0  0  0
  8  9  2  0  0  0  0
  9 10  1  0  0  0  0
 10 11  1  0  0  0  0
 11 12  1  0  0  0  0
 12 13  1  0  0  0  0
 13 14  1  0  0  0  0
 14 15  1  0  0  0  0
 15 16  1  0  0  0  0
 16 19  2  0  0  0  0
 16 22  1  0  0  0  0
 17 18  2  0  0  0  0
 17 21  1  0  0  0  0
 18 19  1  0  0  0  0
 21 22  2  0  0  0  0
 21 26  1  0  0  0  0
 22 23  1  0  0  0  0
 23 24  2  0  0  0  0
 24 25  1  0  0  0  0
 25 26  2  0  0  0  0
  3 28  1  0  0  0  0
  6 29  1  0  0  0  0
  8 30  1  0  0  0  0
  9 31  1  0  0  0  0
 10 32  1  0  0  0  0
 12 33  1  0  0  0  0
 12 34  1  0  0  0  0
 13 35  1  0  0  0  0
 13 36  1  0  0  0  0
 14 37  1  0  0  0  0
 14 38  1  0  0  0  0
 17 39  1  0  0  0  0
 18 40  1  0  0  0  0
 19 41  1  0  0  0  0
 23 42  1  0  0  0  0
 24 43  1  0  0  0  0
 25 44  1  0  0  0  0
 26 45  1  0  0  0  0
M  END
> <r_user_dG.exp>
-9.77997627425646

$$$$
54
  -OEChem-05162309453D
 Structure written by MMmdl.
 45 48  0     1  0  0  0  0  0999 V2000
    3.6008  -50.1426    7.0953 O   0  0  0  0  0  0  0  0  0  0  0  0
    2.9945  -49.0877    6.7720 C   0  0  0  0  0  0  0  0  0  0  0  0
    3.5637  -47.9827    6.7380 O   0  0  0  0  0  0  0  0  0  0  0  0
    1.5546  -49.1833    6.4462 C   0  0  0  0  0  0  0  0  0  0  0  0
   -0.4163  -50.3312    6.3666 C   0  0  3  0  0  0  0  0  0  0  0  0
   -1.4599  -51.2734    6.4649 C   0  0  0  0  0  0  0  0  0  0  0  0
   -2.7720  -50.8647    6.1354 C   0  0  0  0  0  0  0  0  0  0  0  0
   -3.0153  -49.5600    5.6849 C   0  0  0  0  0  0  0  0  0  0  0  0
   -1.9719  -48.6268    5.5970 C   0  0  0  0  0  0  0  0  0  0  0  0
   -0.6362  -48.9893    5.9458 C   0  0  0  0  0  0  0  0  0  0  0  0
    0.6049  -48.2698    6.0108 C   0  0  0  0  0  0  0  0  0  0  0  0
    0.7928  -46.8042    5.7026 C   0  0  0  0  0  0  0  0  0  0  0  0
    0.7659  -45.9154    6.9617 C   0  0  0  0  0  0  0  0  0  0  0  0
   -0.4547  -46.1428    7.8719 C   0  0  0  0  0  0  0  0  0  0  0  0
   -1.6482  -45.7967    7.1768 O   0  0  0  0  0  0  0  0  0  0  0  0
   -2.8653  -46.0089    7.8013 C   0  0  0  0  0  0  0  0  0  0  0  0
   -5.3919  -46.3961    9.0422 C   0  0  0  0  0  0  0  0  0  0  0  0
   -4.2120  -46.7521    9.7091 C   0  0  0  0  0  0  0  0  0  0  0  0
   -2.9640  -46.5642    9.0973 C   0  0  0  0  0  0  0  0  0  0  0  0
   -4.0633  -51.9831    6.3229 Cl  0  0  0  0  0  0  0  0  0  0  0  0
   -5.3220  -45.8538    7.7419 C   0  0  0  0  0  0  0  0  0  0  0  0
   -4.0586  -45.6657    7.1236 C   0  0  0  0  0  0  0  0  0  0  0  0
   -4.0089  -45.1257    5.8153 C   0  0  0  0  0  0  0  0  0  0  0  0
   -5.1957  -44.7666    5.1494 C   0  0  0  0  0  0  0  0  0  0  0  0
   -6.4462  -44.9616    5.7683 C   0  0  0  0  0  0  0  0  0  0  0  0
   -6.5086  -45.5045    7.0675 C   0  0  0  0  0  0  0  0  0  0  0  0
    0.9431  -50.4141    6.6339 N   0  0  0  0  0  0  0  0  0  0  0  0
    4.4749  -48.0876    6.9854 H   0  0  0  0  0  0  0  0  0  0  0  0
   -0.2349  -50.6334    5.3246 H   0  0  0  0  0  0  0  0  0  0  0  0
   -1.2612  -52.2855    6.7850 H   0  0  0  0  0  0  0  0  0  0  0  0
   -4.0166  -49.2702    5.4025 H   0  0  0  0  0  0  0  0  0  0  0  0
   -2.1817  -47.6219    5.2614 H   0  0  0  0  0  0  0  0  0  0  0  0
    1.7633  -46.6730    5.2017 H   0  0  0  0  0  0  0  0  0  0  0  0
   -0.0143  -46.4815    5.0285 H   0  0  0  0  0  0  0  0  0  0  0  0
    1.6747  -46.1194    7.5469 H   0  0  0  0  0  0  0  0  0  0  0  0
    0.7650  -44.8633    6.6407 H   0  0  0  0  0  0  0  0  0  0  0  0
   -0.4980  -47.2018    8.1663 H   0  0  0  0  0  0  0  0  0  0  0  0
   -0.3612  -45.5159    8.7709 H   0  0  0  0  0  0  0  0  0  0  0  0
   -6.3497  -46.5362    9.5212 H   0  0  0  0  0  0  0  0  0  0  0  0
   -4.2640  -47.1744   10.7018 H   0  0  0  0  0  0  0  0  0  0  0  0
   -2.0651  -46.8480    9.6243 H   0  0  0  0  0  0  0  0  0  0  0  0
   -3.0558  -44.9888    5.3263 H   0  0  0  0  0  0  0  0  0  0  0  0
   -5.1475  -44.3393    4.1587 H   0  0  0  0  0  0  0  0  0  0  0  0
   -7.3548  -44.6957    5.2485 H   0  0  0  0  0  0  0  0  0  0  0  0
   -7.4655  -45.6527    7.5458 H   0  0  0  0  0  0  0  0  0  0  0  0
  1  2  2  0  0  0  0
  2  3  1  0  0  0  0
  2  4  1  0  0  0  0
  4 11  1  0  0  0  0
  4 27  2  0  0  0  0
  5  6  1  0  0  0  0
  5 10  1  0  0  0  0
  5 27  1  0  0  0  0
  6  7  2  0  0  0  0
  7  8  1  0  0  0  0
  7 20  1  0  0  0  0
  8  9  2  0  0  0  0
  9 10  1  0  0  0  0
 10 11  2  0  0  0  0
 11 12  1  0  0  0  0
 12 13  1  0  0  0  0
 13 14  1  0  0  0  0
 14 15  1  0  0  0  0
 15 16  1  0  0  0  0
 16 19  2  0  0  0  0
 16 22  1  0  0  0  0
 17 18  2  0  0  0  0
 17 21  1  0  0  0  0
 18 19  1  0  0  0  0
 21 22  2  0  0  0  0
 21 26  1  0  0  0  0
 22 23  1  0  0  0  0
 23 24  2  0  0  0  0
 24 25  1  0  0  0  0
 25 26  2  0  0  0  0
  3 28  1  0  0  0  0
  5 29  1  0  0  0  0
  6 30  1  0  0  0  0
  8 31  1  0  0  0  0
  9 32  1  0  0  0  0
 12 33  1  0  0  0  0
 12 34  1  0  0  0  0
 13 35  1  0  0  0  0
 13 36  1  0  0  0  0
 14 37  1  0  0  0  0
 14 38  1  0  0  0  0
 17 39  1  0  0  0  0
 18 40  1  0  0  0  0
 19 41  1  0  0  0  0
 23 42  1  0  0  0  0
 24 43  1  0  0  0  0
 25 44  1  0  0  0  0
 26 45  1  0  0  0  0
M  END
> <r_user_dG.exp>
-9.77997627425646

$$$$
54
  -OEChem-05162309453D
 Structure written by MMmdl.
 45 48  0     0  0  0  0  0  0999 V2000
    3.6008  -50.1426    7.0953 O   0  0  0  0  0  0  0  0  0  0  0  0
    2.9945  -49.0877    6.7720 C   0  0  0  0  0  0  0  0  0  0  0  0
    3.5637  -47.9827    6.7380 O   0  0  0  0  0  0  0  0  0  0  0  0
    1.5546  -49.1833    6.4462 C   0  0  0  0  0  0  0  0  0  0  0  0
   -0.4163  -50.3312    6.3666 C   0  0  0  0  0  0  0  0  0  0  0  0
   -1.4599  -51.2734    6.4649 C   0  0  0  0  0  0  0  0  0  0  0  0
   -2.7720  -50.8647    6.1354 C   0  0  0  0  0  0  0  0  0  0  0  0
   -3.0153  -49.5600    5.6849 C   0  0  0  0  0  0  0  0  0  0  0  0
   -1.9719  -48.6268    5.5970 C   0  0  0  0  0  0  0  0  0  0  0  0
   -0.6362  -48.9893    5.9458 C   0  0  0  0  0  0  0  0  0  0  0  0
    0.6049  -48.2698    6.0108 C   0  0  0  0  0  0  0  0  0  0  0  0
    0.7928  -46.8042    5.7026 C   0  0  0  0  0  0  0  0  0  0  0  0
    0.7659  -45.9154    6.9617 C   0  0  0  0  0  0  0  0  0  0  0  0
   -0.4547  -46.1428    7.8719 C   0  0  0  0  0  0  0  0  0  0  0  0
   -1.6482  -45.7967    7.1768 O   0  0  0  0  0  0  0  0  0  0  0  0
   -2.8653  -46.0089    7.8013 C   0  0  0  0  0  0  0  0  0  0  0  0
   -5.3919  -46.3961    9.0422 C   0  0  0  0  0  0  0  0  0  0  0  0
   -4.2120  -46.7521    9.7091 C   0  0  0  0  0  0  0  0  0  0  0  0
   -2.9640  -46.5642    9.0973 C   0  0  0  0  0  0  0  0  0  0  0  0
   -4.0633  -51.9831    6.3229 Cl  0  0  0  0  0  0  0  0  0  0  0  0
   -5.3220  -45.8538    7.7419 C   0  0  0  0  0  0  0  0  0  0  0  0
   -4.0586  -45.6657    7.1236 C   0  0  0  0  0  0  0  0  0  0  0  0
   -4.0089  -45.1257    5.8153 C   0  0  0  0  0  0  0  0  0  0  0  0
   -5.1957  -44.7666    5.1494 C   0  0  0  0  0  0  0  0  0  0  0  0
   -6.4462  -44.9616    5.7683 C   0  0  0  0  0  0  0  0  0  0  0  0
   -6.5086  -45.5045    7.0675 C   0  0  0  0  0  0  0  0  0  0  0  0
    0.9431  -50.4141    6.6339 N   0  0  0  0  0  0  0  0  0  0  0  0
    4.4749  -48.0876    6.9854 H   0  0  0  0  0  0  0  0  0  0  0  0
   -1.2612  -52.2855    6.7850 H   0  0  0  0  0  0  0  0  0  0  0  0
   -4.0166  -49.2702    5.4025 H   0  0  0  0  0  0  0  0  0  0  0  0
   -1.9419  -48.2873    4.5511 H   0  0  0  0  0  0  0  0  0  0  0  0
   -2.2486  -47.7845    6.2481 H   0  0  0  0  0  0  0  0  0  0  0  0
    1.7633  -46.6730    5.2017 H   0  0  0  0  0  0  0  0  0  0  0  0
   -0.0143  -46.4815    5.0285 H   0  0  0  0  0  0  0  0  0  0  0  0
    1.6747  -46.1194    7.5469 H   0  0  0  0  0  0  0  0  0  0  0  0
    0.7650  -44.8633    6.6407 H   0  0  0  0  0  0  0  0  0  0  0  0
   -0.4980  -47.2018    8.1663 H   0  0  0  0  0  0  0  0  0  0  0  0
   -0.3612  -45.5159    8.7709 H   0  0  0  0  0  0  0  0  0  0  0  0
   -6.3497  -46.5362    9.5212 H   0  0  0  0  0  0  0  0  0  0  0  0
   -4.2640  -47.1744   10.7018 H   0  0  0  0  0  0  0  0  0  0  0  0
   -2.0651  -46.8480    9.6243 H   0  0  0  0  0  0  0  0  0  0  0  0
   -3.0558  -44.9888    5.3263 H   0  0  0  0  0  0  0  0  0  0  0  0
   -5.1475  -44.3393    4.1587 H   0  0  0  0  0  0  0  0  0  0  0  0
   -7.3548  -44.6957    5.2485 H   0  0  0  0  0  0  0  0  0  0  0  0
   -7.4655  -45.6527    7.5458 H   0  0  0  0  0  0  0  0  0  0  0  0
  1  2  2  0  0  0  0
  2  3  1  0  0  0  0
  2  4  1  0  0  0  0
  4 11  1  0  0  0  0
  4 27  2  0  0  0  0
  5  6  2  0  0  0  0
  5 10  1  0  0  0  0
  5 27  1  0  0  0  0
  6  7  1  0  0  0  0
  7  8  2  0  0  0  0
  7 20  1  0  0  0  0
  8  9  1  0  0  0  0
  9 10  1  0  0  0  0
 10 11  2  0  0  0  0
 11 12  1  0  0  0  0
 12 13  1  0  0  0  0
 13 14  1  0  0  0  0
 14 15  1  0  0  0  0
 15 16  1  0  0  0  0
 16 19  2  0  0  0  0
 16 22  1  0  0  0  0
 17 18  2  0  0  0  0
 17 21  1  0  0  0  0
 18 19  1  0  0  0  0
 21 22  2  0  0  0  0
 21 26  1  0  0  0  0
 22 23  1  0  0  0  0
 23 24  2  0  0  0  0
 24 25  1  0  0  0  0
 25 26  2  0  0  0  0
  3 28  1  0  0  0  0
  6 29  1  0  0  0  0
  8 30  1  0  0  0  0
  9 31  1  0  0  0  0
  9 32  1  0  0  0  0
 12 33  1  0  0  0  0
 12 34  1  0  0  0  0
 13 35  1  0  0  0  0
 13 36  1  0  0  0  0
 14 37  1  0  0  0  0
 14 38  1  0  0  0  0
 17 39  1  0  0  0  0
 18 40  1  0  0  0  0
 19 41  1  0  0  0  0
 23 42  1  0  0  0  0
 24 43  1  0  0  0  0
 25 44  1  0  0  0  0
 26 45  1  0  0  0  0
M  END
> <r_user_dG.exp>
-9.77997627425646

$$$$
54
  -OEChem-05162309453D
 Structure written by MMmdl.
 45 48  0     0  0  0  0  0  0999 V2000
    3.6008  -50.1426    7.0953 O   0  0  0  0  0  0  0  0  0  0  0  0
    2.9945  -49.0877    6.7720 C   0  0  0  0  0  0  0  0  0  0  0  0
    3.5637  -47.9827    6.7380 O   0  0  0  0  0  0  0  0  0  0  0  0
    1.5546  -49.1833    6.4462 C   0  0  0  0  0  0  0  0  0  0  0  0
   -0.4163  -50.3312    6.3666 C   0  0  0  0  0  0  0  0  0  0  0  0
   -1.4599  -51.2734    6.4649 C   0  0  0  0  0  0  0  0  0  0  0  0
   -2.7720  -50.8647    6.1354 C   0  0  0  0  0  0  0  0  0  0  0  0
   -3.0153  -49.5600    5.6849 C   0  0  0  0  0  0  0  0  0  0  0  0
   -1.9719  -48.6268    5.5970 C   0  0  0  0  0  0  0  0  0  0  0  0
   -0.6362  -48.9893    5.9458 C   0  0  0  0  0  0  0  0  0  0  0  0
    0.6049  -48.2698    6.0108 C   0  0  0  0  0  0  0  0  0  0  0  0
    0.7928  -46.8042    5.7026 C   0  0  0  0  0  0  0  0  0  0  0  0
    0.7659  -45.9154    6.9617 C   0  0  0  0  0  0  0  0  0  0  0  0
   -0.4547  -46.1428    7.8719 C   0  0  0  0  0  0  0  0  0  0  0  0
   -1.6482  -45.7967    7.1768 O   0  0  0  0  0  0  0  0  0  0  0  0
   -2.8653  -46.0089    7.8013 C   0  0  0  0  0  0  0  0  0  0  0  0
   -5.3919  -46.3961    9.0422 C   0  0  0  0  0  0  0  0  0  0  0  0
   -4.2120  -46.7521    9.7091 C   0  0  0  0  0  0  0  0  0  0  0  0
   -2.9640  -46.5642    9.0973 C   0  0  0  0  0  0  0  0  0  0  0  0
   -4.0633  -51.9831    6.3229 Cl  0  0  0  0  0  0  0  0  0  0  0  0
   -5.3220  -45.8538    7.7419 C   0  0  0  0  0  0  0  0  0  0  0  0
   -4.0586  -45.6657    7.1236 C   0  0  0  0  0  0  0  0  0  0  0  0
   -4.0089  -45.1257    5.8153 C   0  0  0  0  0  0  0  0  0  0  0  0
   -5.1957  -44.7666    5.1494 C   0  0  0  0  0  0  0  0  0  0  0  0
   -6.4462  -44.9616    5.7683 C   0  0  0  0  0  0  0  0  0  0  0  0
   -6.5086  -45.5045    7.0675 C   0  0  0  0  0  0  0  0  0  0  0  0
    0.9431  -50.4141    6.6339 N   0  0  0  0  0  0  0  0  0  0  0  0
    4.4749  -48.0876    6.9854 H   0  0  0  0  0  0  0  0  0  0  0  0
   -1.2612  -52.2855    6.7850 H   0  0  0  0  0  0  0  0  0  0  0  0
   -3.4417  -49.6507    4.6750 H   0  0  0  0  0  0  0  0  0  0  0  0
   -3.7665  -49.1285    6.3627 H   0  0  0  0  0  0  0  0  0  0  0  0
   -2.1817  -47.6219    5.2614 H   0  0  0  0  0  0  0  0  0  0  0  0
    1.7633  -46.6730    5.2017 H   0  0  0  0  0  0  0  0  0  0  0  0
   -0.0143  -46.4815    5.0285 H   0  0  0  0  0  0  0  0  0  0  0  0
    1.6747  -46.1194    7.5469 H   0  0  0  0  0  0  0  0  0  0  0  0
    0.7650  -44.8633    6.6407 H   0  0  0  0  0  0  0  0  0  0  0  0
   -0.4980  -47.2018    8.1663 H   0  0  0  0  0  0  0  0  0  0  0  0
   -0.3612  -45.5159    8.7709 H   0  0  0  0  0  0  0  0  0  0  0  0
   -6.3497  -46.5362    9.5212 H   0  0  0  0  0  0  0  0  0  0  0  0
   -4.2640  -47.1744   10.7018 H   0  0  0  0  0  0  0  0  0  0  0  0
   -2.0651  -46.8480    9.6243 H   0  0  0  0  0  0  0  0  0  0  0  0
   -3.0558  -44.9888    5.3263 H   0  0  0  0  0  0  0  0  0  0  0  0
   -5.1475  -44.3393    4.1587 H   0  0  0  0  0  0  0  0  0  0  0  0
   -7.3548  -44.6957    5.2485 H   0  0  0  0  0  0  0  0  0  0  0  0
   -7.4655  -45.6527    7.5458 H   0  0  0  0  0  0  0  0  0  0  0  0
  1  2  2  0  0  0  0
  2  3  1  0  0  0  0
  2  4  1  0  0  0  0
  4 11  2  0  0  0  0
  4 27  1  0  0  0  0
  5  6  1  0  0  0  0
  5 10  1  0  0  0  0
  5 27  2  0  0  0  0
  6  7  2  0  0  0  0
  7  8  1  0  0  0  0
  7 20  1  0  0  0  0
  8  9  1  0  0  0  0
  9 10  2  0  0  0  0
 10 11  1  0  0  0  0
 11 12  1  0  0  0  0
 12 13  1  0  0  0  0
 13 14  1  0  0  0  0
 14 15  1  0  0  0  0
 15 16  1  0  0  0  0
 16 19  2  0  0  0  0
 16 22  1  0  0  0  0
 17 18  2  0  0  0  0
 17 21  1  0  0  0  0
 18 19  1  0  0  0  0
 21 22  2  0  0  0  0
 21 26  1  0  0  0  0
 22 23  1  0  0  0  0
 23 24  2  0  0  0  0
 24 25  1  0  0  0  0
 25 26  2  0  0  0  0
  3 28  1  0  0  0  0
  6 29  1  0  0  0  0
  8 30  1  0  0  0  0
  8 31  1  0  0  0  0
  9 32  1  0  0  0  0
 12 33  1  0  0  0  0
 12 34  1  0  0  0  0
 13 35  1  0  0  0  0
 13 36  1  0  0  0  0
 14 37  1  0  0  0  0
 14 38  1  0  0  0  0
 17 39  1  0  0  0  0
 18 40  1  0  0  0  0
 19 41  1  0  0  0  0
 23 42  1  0  0  0  0
 24 43  1  0  0  0  0
 25 44  1  0  0  0  0
 26 45  1  0  0  0  0
M  END
> <r_user_dG.exp>
-9.77997627425646

$$$$
54
  -OEChem-05162309453D
 Structure written by MMmdl.
 45 48  0     0  0  0  0  0  0999 V2000
    3.6008  -50.1426    7.0953 O   0  0  0  0  0  0  0  0  0  0  0  0
    2.9945  -49.0877    6.7720 C   0  0  0  0  0  0  0  0  0  0  0  0
    3.5637  -47.9827    6.7380 O   0  0  0  0  0  0  0  0  0  0  0  0
    1.5546  -49.1833    6.4462 C   0  0  0  0  0  0  0  0  0  0  0  0
   -0.4163  -50.3312    6.3666 C   0  0  0  0  0  0  0  0  0  0  0  0
   -1.4599  -51.2734    6.4649 C   0  0  0  0  0  0  0  0  0  0  0  0
   -2.7720  -50.8647    6.1354 C   0  0  0  0  0  0  0  0  0  0  0  0
   -3.0153  -49.5600    5.6849 C   0  0  0  0  0  0  0  0  0  0  0  0
   -1.9719  -48.6268    5.5970 C   0  0  0  0  0  0  0  0  0  0  0  0
   -0.6362  -48.9893    5.9458 C   0  0  0  0  0  0  0  0  0  0  0  0
    0.6049  -48.2698    6.0108 C   0  0  0  0  0  0  0  0  0  0  0  0
    0.7928  -46.8042    5.7026 C   0  0  0  0  0  0  0  0  0  0  0  0
    0.7659  -45.9154    6.9617 C   0  0  0  0  0  0  0  0  0  0  0  0
   -0.4547  -46.1428    7.8719 C   0  0  0  0  0  0  0  0  0  0  0  0
   -1.6482  -45.7967    7.1768 O   0  0  0  0  0  0  0  0  0  0  0  0
   -2.8653  -46.0089    7.8013 C   0  0  0  0  0  0  0  0  0  0  0  0
   -5.3919  -46.3961    9.0422 C   0  0  0  0  0  0  0  0  0  0  0  0
   -4.2120  -46.7521    9.7091 C   0  0  0  0  0  0  0  0  0  0  0  0
   -2.9640  -46.5642    9.0973 C   0  0  0  0  0  0  0  0  0  0  0  0
   -4.0633  -51.9831    6.3229 Cl  0  0  0  0  0  0  0  0  0  0  0  0
   -5.3220  -45.8538    7.7419 C   0  0  0  0  0  0  0  0  0  0  0  0
   -4.0586  -45.6657    7.1236 C   0  0  0  0  0  0  0  0  0  0  0  0
   -4.0089  -45.1257    5.8153 C   0  0  0  0  0  0  0  0  0  0  0  0
   -5.1957  -44.7666    5.1494 C   0  0  0  0  0  0  0  0  0  0  0  0
   -6.4462  -44.9616    5.7683 C   0  0  0  0  0  0  0  0  0  0  0  0
   -6.5086  -45.5045    7.0675 C   0  0  0  0  0  0  0  0  0  0  0  0
    0.9431  -50.4141    6.6339 N   0  0  0  0  0  0  0  0  0  0  0  0
    4.4749  -48.0876    6.9854 H   0  0  0  0  0  0  0  0  0  0  0  0
   -1.2043  -52.1113    5.7996 H   0  0  0  0  0  0  0  0  0  0  0  0
   -1.4818  -51.6259    7.5067 H   0  0  0  0  0  0  0  0  0  0  0  0
   -4.0166  -49.2702    5.4025 H   0  0  0  0  0  0  0  0  0  0  0  0
   -2.1817  -47.6219    5.2614 H   0  0  0  0  0  0  0  0  0  0  0  0
    1.7633  -46.6730    5.2017 H   0  0  0  0  0  0  0  0  0  0  0  0
   -0.0143  -46.4815    5.0285 H   0  0  0  0  0  0  0  0  0  0  0  0
    1.6747  -46.1194    7.5469 H   0  0  0  0  0  0  0  0  0  0  0  0
    0.7650  -44.8633    6.6407 H   0  0  0  0  0  0  0  0  0  0  0  0
   -0.4980  -47.2018    8.1663 H   0  0  0  0  0  0  0  0  0  0  0  0
   -0.3612  -45.5159    8.7709 H   0  0  0  0  0  0  0  0  0  0  0  0
   -6.3497  -46.5362    9.5212 H   0  0  0  0  0  0  0  0  0  0  0  0
   -4.2640  -47.1744   10.7018 H   0  0  0  0  0  0  0  0  0  0  0  0
   -2.0651  -46.8480    9.6243 H   0  0  0  0  0  0  0  0  0  0  0  0
   -3.0558  -44.9888    5.3263 H   0  0  0  0  0  0  0  0  0  0  0  0
   -5.1475  -44.3393    4.1587 H   0  0  0  0  0  0  0  0  0  0  0  0
   -7.3548  -44.6957    5.2485 H   0  0  0  0  0  0  0  0  0  0  0  0
   -7.4655  -45.6527    7.5458 H   0  0  0  0  0  0  0  0  0  0  0  0
  1  2  2  0  0  0  0
  2  3  1  0  0  0  0
  2  4  1  0  0  0  0
  4 11  2  0  0  0  0
  4 27  1  0  0  0  0
  5  6  1  0  0  0  0
  5 10  1  0  0  0  0
  5 27  2  0  0  0  0
  6  7  1  0  0  0  0
  7  8  2  0  0  0  0
  7 20  1  0  0  0  0
  8  9  1  0  0  0  0
  9 10  2  0  0  0  0
 10 11  1  0  0  0  0
 11 12  1  0  0  0  0
 12 13  1  0  0  0  0
 13 14  1  0  0  0  0
 14 15  1  0  0  0  0
 15 16  1  0  0  0  0
 16 19  2  0  0  0  0
 16 22  1  0  0  0  0
 17 18  2  0  0  0  0
 17 21  1  0  0  0  0
 18 19  1  0  0  0  0
 21 22  2  0  0  0  0
 21 26  1  0  0  0  0
 22 23  1  0  0  0  0
 23 24  2  0  0  0  0
 24 25  1  0  0  0  0
 25 26  2  0  0  0  0
  3 28  1  0  0  0  0
  6 29  1  0  0  0  0
  6 30  1  0  0  0  0
  8 31  1  0  0  0  0
  9 32  1  0  0  0  0
 12 33  1  0  0  0  0
 12 34  1  0  0  0  0
 13 35  1  0  0  0  0
 13 36  1  0  0  0  0
 14 37  1  0  0  0  0
 14 38  1  0  0  0  0
 17 39  1  0  0  0  0
 18 40  1  0  0  0  0
 19 41  1  0  0  0  0
 23 42  1  0  0  0  0
 24 43  1  0  0  0  0
 25 44  1  0  0  0  0
 26 45  1  0  0  0  0
M  END
> <r_user_dG.exp>
-9.77997627425646

$$$$
54
  -OEChem-05162309453D
 Structure written by MMmdl.
 45 48  0     0  0  0  0  0  0999 V2000
    3.6008  -50.1426    7.0953 O   0  0  0  0  0  0  0  0  0  0  0  0
    2.9945  -49.0877    6.7720 C   0  0  0  0  0  0  0  0  0  0  0  0
    3.5637  -47.9827    6.7380 O   0  0  0  0  0  0  0  0  0  0  0  0
    1.5546  -49.1833    6.4462 C   0  0  0  0  0  0  0  0  0  0  0  0
   -0.4163  -50.3312    6.3666 C   0  0  0  0  0  0  0  0  0  0  0  0
   -1.4599  -51.2734    6.4649 C   0  0  0  0  0  0  0  0  0  0  0  0
   -2.7720  -50.8647    6.1354 C   0  0  0  0  0  0  0  0  0  0  0  0
   -3.0153  -49.5600    5.6849 C   0  0  0  0  0  0  0  0  0  0  0  0
   -1.9719  -48.6268    5.5970 C   0  0  0  0  0  0  0  0  0  0  0  0
   -0.6362  -48.9893    5.9458 C   0  0  0  0  0  0  0  0  0  0  0  0
    0.6049  -48.2698    6.0108 C   0  0  0  0  0  0  0  0  0  0  0  0
    0.7928  -46.8042    5.7026 C   0  0  0  0  0  0  0  0  0  0  0  0
    0.7659  -45.9154    6.9617 C   0  0  0  0  0  0  0  0  0  0  0  0
   -0.4547  -46.1428    7.8719 C   0  0  0  0  0  0  0  0  0  0  0  0
   -1.6482  -45.7967    7.1768 O   0  0  0  0  0  0  0  0  0  0  0  0
   -2.8653  -46.0089    7.8013 C   0  0  0  0  0  0  0  0  0  0  0  0
   -5.3919  -46.3961    9.0422 C   0  0  0  0  0  0  0  0  0  0  0  0
   -4.2120  -46.7521    9.7091 C   0  0  0  0  0  0  0  0  0  0  0  0
   -2.9640  -46.5642    9.0973 C   0  0  0  0  0  0  0  0  0  0  0  0
   -4.0633  -51.9831    6.3229 Cl  0  0  0  0  0  0  0  0  0  0  0  0
   -5.3220  -45.8538    7.7419 C   0  0  0  0  0  0  0  0  0  0  0  0
   -4.0586  -45.6657    7.1236 C   0  0  0  0  0  0  0  0  0  0  0  0
   -4.0089  -45.1257    5.8153 C   0  0  0  0  0  0  0  0  0  0  0  0
   -5.1957  -44.7666    5.1494 C   0  0  0  0  0  0  0  0  0  0  0  0
   -6.4462  -44.9616    5.7683 C   0  0  0  0  0  0  0  0  0  0  0  0
   -6.5086  -45.5045    7.0675 C   0  0  0  0  0  0  0  0  0  0  0  0
    0.9431  -50.4141    6.6339 N   0  0  0  0  0  0  0  0  0  0  0  0
    2.9993  -50.8771    7.0615 H   0  0  0  0  0  0  0  0  0  0  0  0
    2.9428  -47.3142    6.4733 H   0  0  0  0  0  0  0  0  0  0  0  0
   -1.2612  -52.2855    6.7850 H   0  0  0  0  0  0  0  0  0  0  0  0
   -4.0166  -49.2702    5.4025 H   0  0  0  0  0  0  0  0  0  0  0  0
   -2.1817  -47.6219    5.2614 H   0  0  0  0  0  0  0  0  0  0  0  0
    1.7633  -46.6730    5.2017 H   0  0  0  0  0  0  0  0  0  0  0  0
   -0.0143  -46.4815    5.0285 H   0  0  0  0  0  0  0  0  0  0  0  0
    1.6747  -46.1194    7.5469 H   0  0  0  0  0  0  0  0  0  0  0  0
    0.7650  -44.8633    6.6407 H   0  0  0  0  0  0  0  0  0  0  0  0
   -0.4980  -47.2018    8.1663 H   0  0  0  0  0  0  0  0  0  0  0  0
   -0.3612  -45.5159    8.7709 H   0  0  0  0  0  0  0  0  0  0  0  0
   -6.3497  -46.5362    9.5212 H   0  0  0  0  0  0  0  0  0  0  0  0
   -4.2640  -47.1744   10.7018 H   0  0  0  0  0  0  0  0  0  0  0  0
   -2.0651  -46.8480    9.6243 H   0  0  0  0  0  0  0  0  0  0  0  0
   -3.0558  -44.9888    5.3263 H   0  0  0  0  0  0  0  0  0  0  0  0
   -5.1475  -44.3393    4.1587 H   0  0  0  0  0  0  0  0  0  0  0  0
   -7.3548  -44.6957    5.2485 H   0  0  0  0  0  0  0  0  0  0  0  0
   -7.4655  -45.6527    7.5458 H   0  0  0  0  0  0  0  0  0  0  0  0
  1  2  1  0  0  0  0
  2  3  1  0  0  0  0
  2  4  2  0  0  0  0
  4 11  1  0  0  0  0
  4 27  1  0  0  0  0
  5  6  1  0  0  0  0
  5 10  1  0  0  0  0
  5 27  2  0  0  0  0
  6  7  2  0  0  0  0
  7  8  1  0  0  0  0
  7 20  1  0  0  0  0
  8  9  2  0  0  0  0
  9 10  1  0  0  0  0
 10 11  2  0  0  0  0
 11 12  1  0  0  0  0
 12 13  1  0  0  0  0
 13 14  1  0  0  0  0
 14 15  1  0  0  0  0
 15 16  1  0  0  0  0
 16 19  2  0  0  0  0
 16 22  1  0  0  0  0
 17 18  2  0  0  0  0
 17 21  1  0  0  0  0
 18 19  1  0  0  0  0
 21 22  2  0  0  0  0
 21 26  1  0  0  0  0
 22 23  1  0  0  0  0
 23 24  2  0  0  0  0
 24 25  1  0  0  0  0
 25 26  2  0  0  0  0
  1 28  1  0  0  0  0
  3 29  1  0  0  0  0
  6 30  1  0  0  0  0
  8 31  1  0  0  0  0
  9 32  1  0  0  0  0
 12 33  1  0  0  0  0
 12 34  1  0  0  0  0
 13 35  1  0  0  0  0
 13 36  1  0  0  0  0
 14 37  1  0  0  0  0
 14 38  1  0  0  0  0
 17 39  1  0  0  0  0
 18 40  1  0  0  0  0
 19 41  1  0  0  0  0
 23 42  1  0  0  0  0
 24 43  1  0  0  0  0
 25 44  1  0  0  0  0
 26 45  1  0  0  0  0
M  END
> <r_user_dG.exp>
-9.77997627425646

$$$$
