63
  -OEChem-05162309453D
 Structure written by MMmdl.
 44 46  0     0  0  0  0  0  0999 V2000
    3.8904  -49.9128    7.2593 O   0  0  0  0  0  0  0  0  0  0  0  0
    3.1473  -49.0461    6.7409 C   0  0  0  0  0  0  0  0  0  0  0  0
    3.5646  -47.8962    6.4882 O   0  0  0  0  0  0  0  0  0  0  0  0
    1.7208  -49.3609    6.4386 C   0  0  0  0  0  0  0  0  0  0  0  0
    1.1474  -50.8838    7.0571 S   0  0  0  0  0  0  0  0  0  0  0  0
   -0.4833  -50.5334    6.5324 C   0  0  0  0  0  0  0  0  0  0  0  0
   -1.6406  -51.2952    6.7763 C   0  0  0  0  0  0  0  0  0  0  0  0
   -2.8824  -50.8186    6.3195 C   0  0  0  0  0  0  0  0  0  0  0  0
   -2.9595  -49.6440    5.5579 C   0  0  0  0  0  0  0  0  0  0  0  0
   -1.7949  -48.9052    5.3019 C   0  0  0  0  0  0  0  0  0  0  0  0
   -0.5283  -49.2970    5.8096 C   0  0  0  0  0  0  0  0  0  0  0  0
    0.7542  -48.6240    5.7715 C   0  0  0  0  0  0  0  0  0  0  0  0
    0.9557  -47.2723    5.1257 C   0  0  0  0  0  0  0  0  0  0  0  0
    0.9944  -46.0835    6.1170 C   0  0  0  0  0  0  0  0  0  0  0  0
   -0.1952  -46.0031    7.0806 C   0  0  0  0  0  0  0  0  0  0  0  0
   -1.3623  -45.5679    6.3922 O   0  0  0  0  0  0  0  0  0  0  0  0
   -2.5506  -45.5270    7.0930 C   0  0  0  0  0  0  0  0  0  0  0  0
   -2.7548  -46.1613    8.3473 C   0  0  0  0  0  0  0  0  0  0  0  0
   -4.0188  -46.1288    8.9720 C   0  0  0  0  0  0  0  0  0  0  0  0
   -4.2211  -46.8876   10.2713 C   0  0  0  0  0  0  0  0  0  0  0  0
   -5.0918  -45.4247    8.3755 C   0  0  0  0  0  0  0  0  0  0  0  0
   -6.6499  -45.3836    9.1387 Cl  0  0  0  0  0  0  0  0  0  0  0  0
   -4.8818  -44.7661    7.1412 C   0  0  0  0  0  0  0  0  0  0  0  0
   -6.0115  -43.9984    6.4841 C   0  0  0  0  0  0  0  0  0  0  0  0
   -3.6224  -44.8331    6.5031 C   0  0  0  0  0  0  0  0  0  0  0  0
   -4.3386  -51.6470    6.7125 Cl  0  0  0  0  0  0  0  0  0  0  0  0
    4.4759  -47.8255    6.7473 H   0  0  0  0  0  0  0  0  0  0  0  0
   -1.5763  -52.2335    7.3072 H   0  0  0  0  0  0  0  0  0  0  0  0
   -3.9106  -49.3098    5.1704 H   0  0  0  0  0  0  0  0  0  0  0  0
   -1.8639  -48.0110    4.7002 H   0  0  0  0  0  0  0  0  0  0  0  0
    1.9090  -47.2928    4.5772 H   0  0  0  0  0  0  0  0  0  0  0  0
    0.1298  -47.1031    4.4192 H   0  0  0  0  0  0  0  0  0  0  0  0
    1.9132  -46.1686    6.7158 H   0  0  0  0  0  0  0  0  0  0  0  0
    1.0229  -45.1524    5.5320 H   0  0  0  0  0  0  0  0  0  0  0  0
   -0.3792  -46.9976    7.5132 H   0  0  0  0  0  0  0  0  0  0  0  0
    0.0378  -45.2905    7.8855 H   0  0  0  0  0  0  0  0  0  0  0  0
   -1.9341  -46.6735    8.8274 H   0  0  0  0  0  0  0  0  0  0  0  0
   -3.9970  -46.2264   11.1214 H   0  0  0  0  0  0  0  0  0  0  0  0
   -5.2647  -47.2290   10.3377 H   0  0  0  0  0  0  0  0  0  0  0  0
   -3.5484  -47.7576   10.2963 H   0  0  0  0  0  0  0  0  0  0  0  0
   -5.9926  -42.9530    6.8259 H   0  0  0  0  0  0  0  0  0  0  0  0
   -5.8885  -44.0290    5.3914 H   0  0  0  0  0  0  0  0  0  0  0  0
   -6.9735  -44.4562    6.7578 H   0  0  0  0  0  0  0  0  0  0  0  0
   -3.4812  -44.3451    5.5501 H   0  0  0  0  0  0  0  0  0  0  0  0
  1  2  2  0  0  0  0
  2  3  1  0  0  0  0
  2  4  1  0  0  0  0
  4  5  1  0  0  0  0
  4 12  2  0  0  0  0
  5  6  1  0  0  0  0
  6  7  2  0  0  0  0
  6 11  1  0  0  0  0
  7  8  1  0  0  0  0
  8  9  2  0  0  0  0
  8 26  1  0  0  0  0
  9 10  1  0  0  0  0
 10 11  2  0  0  0  0
 11 12  1  0  0  0  0
 12 13  1  0  0  0  0
 13 14  1  0  0  0  0
 14 15  1  0  0  0  0
 15 16  1  0  0  0  0
 16 17  1  0  0  0  0
 17 18  2  0  0  0  0
 17 25  1  0  0  0  0
 18 19  1  0  0  0  0
 19 20  1  0  0  0  0
 19 21  2  0  0  0  0
 21 22  1  0  0  0  0
 21 23  1  0  0  0  0
 23 24  1  0  0  0  0
 23 25  2  0  0  0  0
  3 27  1  0  0  0  0
  7 28  1  0  0  0  0
  9 29  1  0  0  0  0
 10 30  1  0  0  0  0
 13 31  1  0  0  0  0
 13 32  1  0  0  0  0
 14 33  1  0  0  0  0
 14 34  1  0  0  0  0
 15 35  1  0  0  0  0
 15 36  1  0  0  0  0
 18 37  1  0  0  0  0
 20 38  1  0  0  0  0
 20 39  1  0  0  0  0
 20 40  1  0  0  0  0
 24 41  1  0  0  0  0
 24 42  1  0  0  0  0
 24 43  1  0  0  0  0
 25 44  1  0  0  0  0
M  END
> <r_user_dG.exp>
-9.06225196641364

$$$$
