36
  -OEChem-05162309453D
 Structure written by MMmdl.
 45 47  0     0  0  0  0  0  0999 V2000
    3.6486  -50.1155    7.2936 O   0  0  0  0  0  0  0  0  0  0  0  0
    3.0238  -49.1116    6.8696 C   0  0  0  0  0  0  0  0  0  0  0  0
    3.5639  -47.9877    6.7459 O   0  0  0  0  0  0  0  0  0  0  0  0
    1.5940  -49.2664    6.5154 C   0  0  0  0  0  0  0  0  0  0  0  0
   -0.3066  -50.5037    6.2446 C   0  0  0  0  0  0  0  0  0  0  0  0
   -1.2942  -51.5082    6.1819 C   0  0  0  0  0  0  0  0  0  0  0  0
   -2.5933  -51.1778    5.7270 C   0  0  0  0  0  0  0  0  0  0  0  0
   -2.8850  -49.8590    5.3326 C   0  0  0  0  0  0  0  0  0  0  0  0
   -1.8855  -48.8628    5.3863 C   0  0  0  0  0  0  0  0  0  0  0  0
   -0.5718  -49.1585    5.8504 C   0  0  0  0  0  0  0  0  0  0  0  0
    0.6453  -48.4011    6.0244 C   0  0  0  0  0  0  0  0  0  0  0  0
    0.8699  -46.9540    5.7115 C   0  0  0  0  0  0  0  0  0  0  0  0
    0.8705  -46.0612    6.9633 C   0  0  0  0  0  0  0  0  0  0  0  0
   -0.5079  -45.9153    7.6192 C   0  0  0  0  0  0  0  0  0  0  0  0
   -1.3791  -45.2890    6.6807 O   0  0  0  0  0  0  0  0  0  0  0  0
   -2.7075  -45.1673    7.0098 C   0  0  0  0  0  0  0  0  0  0  0  0
   -3.2736  -45.5369    8.2558 C   0  0  0  0  0  0  0  0  0  0  0  0
   -4.6559  -45.3670    8.4996 C   0  0  0  0  0  0  0  0  0  0  0  0
   -5.4813  -44.8248    7.4876 C   0  0  0  0  0  0  0  0  0  0  0  0
   -4.9225  -44.4588    6.2513 C   0  0  0  0  0  0  0  0  0  0  0  0
   -3.5495  -44.6330    6.0174 C   0  0  0  0  0  0  0  0  0  0  0  0
    1.0171  -50.5153    6.6494 N   0  0  0  0  0  0  0  0  0  0  0  0
   -7.1836  -44.6085    7.7292 Cl  0  0  0  0  0  0  0  0  0  0  0  0
   -5.2272  -45.7987    9.8469 C   0  0  0  0  0  0  0  0  0  0  0  0
   -5.7150  -47.2564    9.8165 C   0  0  0  0  0  0  0  0  0  0  0  0
    4.4730  -48.0412    7.0165 H   0  0  0  0  0  0  0  0  0  0  0  0
   -1.0616  -52.5204    6.4782 H   0  0  0  0  0  0  0  0  0  0  0  0
   -3.3599  -51.9373    5.6827 H   0  0  0  0  0  0  0  0  0  0  0  0
   -3.8770  -49.6077    4.9875 H   0  0  0  0  0  0  0  0  0  0  0  0
   -2.1217  -47.8577    5.0695 H   0  0  0  0  0  0  0  0  0  0  0  0
    1.8422  -46.8513    5.2073 H   0  0  0  0  0  0  0  0  0  0  0  0
    0.0698  -46.6128    5.0381 H   0  0  0  0  0  0  0  0  0  0  0  0
    1.5609  -46.4974    7.7002 H   0  0  0  0  0  0  0  0  0  0  0  0
    1.2255  -45.0606    6.6756 H   0  0  0  0  0  0  0  0  0  0  0  0
   -0.9001  -46.9072    7.8881 H   0  0  0  0  0  0  0  0  0  0  0  0
   -0.4267  -45.2954    8.5243 H   0  0  0  0  0  0  0  0  0  0  0  0
   -2.6422  -45.9527    9.0271 H   0  0  0  0  0  0  0  0  0  0  0  0
   -5.5515  -44.0421    5.4786 H   0  0  0  0  0  0  0  0  0  0  0  0
   -3.1331  -44.3526    5.0611 H   0  0  0  0  0  0  0  0  0  0  0  0
    1.4946  -51.3234    6.9944 H   0  0  0  0  0  0  0  0  0  0  0  0
   -4.4449  -45.7004   10.6139 H   0  0  0  0  0  0  0  0  0  0  0  0
   -6.0742  -45.1445   10.1011 H   0  0  0  0  0  0  0  0  0  0  0  0
   -6.1185  -47.5292   10.8028 H   0  0  0  0  0  0  0  0  0  0  0  0
   -6.5024  -47.3636    9.0559 H   0  0  0  0  0  0  0  0  0  0  0  0
   -4.8731  -47.9196    9.5687 H   0  0  0  0  0  0  0  0  0  0  0  0
  1  2  2  0  0  0  0
  2  3  1  0  0  0  0
  2  4  1  0  0  0  0
  4 11  2  0  0  0  0
  4 22  1  0  0  0  0
  5  6  2  0  0  0  0
  5 10  1  0  0  0  0
  5 22  1  0  0  0  0
  6  7  1  0  0  0  0
  7  8  2  0  0  0  0
  8  9  1  0  0  0  0
  9 10  2  0  0  0  0
 10 11  1  0  0  0  0
 11 12  1  0  0  0  0
 12 13  1  0  0  0  0
 13 14  1  0  0  0  0
 14 15  1  0  0  0  0
 15 16  1  0  0  0  0
 16 17  2  0  0  0  0
 16 21  1  0  0  0  0
 17 18  1  0  0  0  0
 18 19  2  0  0  0  0
 18 24  1  0  0  0  0
 19 20  1  0  0  0  0
 19 23  1  0  0  0  0
 20 21  2  0  0  0  0
 24 25  1  0  0  0  0
  3 26  1  0  0  0  0
  6 27  1  0  0  0  0
  7 28  1  0  0  0  0
  8 29  1  0  0  0  0
  9 30  1  0  0  0  0
 12 31  1  0  0  0  0
 12 32  1  0  0  0  0
 13 33  1  0  0  0  0
 13 34  1  0  0  0  0
 14 35  1  0  0  0  0
 14 36  1  0  0  0  0
 17 37  1  0  0  0  0
 20 38  1  0  0  0  0
 21 39  1  0  0  0  0
 22 40  1  0  0  0  0
 24 41  1  0  0  0  0
 24 42  1  0  0  0  0
 25 43  1  0  0  0  0
 25 44  1  0  0  0  0
 25 45  1  0  0  0  0
M  END
> <r_user_dG.exp>
-8.17902305143249

$$$$
36
  -OEChem-05162309453D
 Structure written by MMmdl.
 45 47  0     1  0  0  0  0  0999 V2000
    3.6486  -50.1155    7.2936 O   0  0  0  0  0  0  0  0  0  0  0  0
    3.0238  -49.1116    6.8696 C   0  0  0  0  0  0  0  0  0  0  0  0
    3.5639  -47.9877    6.7459 O   0  0  0  0  0  0  0  0  0  0  0  0
    1.5940  -49.2664    6.5154 C   0  0  0  0  0  0  0  0  0  0  0  0
   -0.3066  -50.5037    6.2446 C   0  0  0  0  0  0  0  0  0  0  0  0
   -1.2942  -51.5082    6.1819 C   0  0  0  0  0  0  0  0  0  0  0  0
   -2.5933  -51.1778    5.7270 C   0  0  0  0  0  0  0  0  0  0  0  0
   -2.8850  -49.8590    5.3326 C   0  0  0  0  0  0  0  0  0  0  0  0
   -1.8855  -48.8628    5.3863 C   0  0  0  0  0  0  0  0  0  0  0  0
   -0.5718  -49.1585    5.8504 C   0  0  0  0  0  0  0  0  0  0  0  0
    0.6453  -48.4011    6.0244 C   0  0  3  0  0  0  0  0  0  0  0  0
    0.8699  -46.9540    5.7115 C   0  0  0  0  0  0  0  0  0  0  0  0
    0.8705  -46.0612    6.9633 C   0  0  0  0  0  0  0  0  0  0  0  0
   -0.5079  -45.9153    7.6192 C   0  0  0  0  0  0  0  0  0  0  0  0
   -1.3791  -45.2890    6.6807 O   0  0  0  0  0  0  0  0  0  0  0  0
   -2.7075  -45.1673    7.0098 C   0  0  0  0  0  0  0  0  0  0  0  0
   -3.2736  -45.5369    8.2558 C   0  0  0  0  0  0  0  0  0  0  0  0
   -4.6559  -45.3670    8.4996 C   0  0  0  0  0  0  0  0  0  0  0  0
   -5.4813  -44.8248    7.4876 C   0  0  0  0  0  0  0  0  0  0  0  0
   -4.9225  -44.4588    6.2513 C   0  0  0  0  0  0  0  0  0  0  0  0
   -3.5495  -44.6330    6.0174 C   0  0  0  0  0  0  0  0  0  0  0  0
    1.0171  -50.5153    6.6494 N   0  0  0  0  0  0  0  0  0  0  0  0
   -7.1836  -44.6085    7.7292 Cl  0  0  0  0  0  0  0  0  0  0  0  0
   -5.2272  -45.7987    9.8469 C   0  0  0  0  0  0  0  0  0  0  0  0
   -5.7150  -47.2564    9.8165 C   0  0  0  0  0  0  0  0  0  0  0  0
    4.4730  -48.0412    7.0165 H   0  0  0  0  0  0  0  0  0  0  0  0
   -1.0616  -52.5204    6.4782 H   0  0  0  0  0  0  0  0  0  0  0  0
   -3.3599  -51.9373    5.6827 H   0  0  0  0  0  0  0  0  0  0  0  0
   -3.8770  -49.6077    4.9875 H   0  0  0  0  0  0  0  0  0  0  0  0
   -2.1217  -47.8577    5.0695 H   0  0  0  0  0  0  0  0  0  0  0  0
    0.3437  -48.1393    7.0493 H   0  0  0  0  0  0  0  0  0  0  0  0
    1.8422  -46.8513    5.2073 H   0  0  0  0  0  0  0  0  0  0  0  0
    0.0698  -46.6128    5.0381 H   0  0  0  0  0  0  0  0  0  0  0  0
    1.5609  -46.4974    7.7002 H   0  0  0  0  0  0  0  0  0  0  0  0
    1.2255  -45.0606    6.6756 H   0  0  0  0  0  0  0  0  0  0  0  0
   -0.9001  -46.9072    7.8881 H   0  0  0  0  0  0  0  0  0  0  0  0
   -0.4267  -45.2954    8.5243 H   0  0  0  0  0  0  0  0  0  0  0  0
   -2.6422  -45.9527    9.0271 H   0  0  0  0  0  0  0  0  0  0  0  0
   -5.5515  -44.0421    5.4786 H   0  0  0  0  0  0  0  0  0  0  0  0
   -3.1331  -44.3526    5.0611 H   0  0  0  0  0  0  0  0  0  0  0  0
   -4.4449  -45.7004   10.6139 H   0  0  0  0  0  0  0  0  0  0  0  0
   -6.0742  -45.1445   10.1011 H   0  0  0  0  0  0  0  0  0  0  0  0
   -6.1185  -47.5292   10.8028 H   0  0  0  0  0  0  0  0  0  0  0  0
   -6.5024  -47.3636    9.0559 H   0  0  0  0  0  0  0  0  0  0  0  0
   -4.8731  -47.9196    9.5687 H   0  0  0  0  0  0  0  0  0  0  0  0
  1  2  2  0  0  0  0
  2  3  1  0  0  0  0
  2  4  1  0  0  0  0
  4 11  1  0  0  0  0
  4 22  2  0  0  0  0
  5  6  2  0  0  0  0
  5 10  1  0  0  0  0
  5 22  1  0  0  0  0
  6  7  1  0  0  0  0
  7  8  2  0  0  0  0
  8  9  1  0  0  0  0
  9 10  2  0  0  0  0
 10 11  1  0  0  0  0
 11 12  1  0  0  0  0
 12 13  1  0  0  0  0
 13 14  1  0  0  0  0
 14 15  1  0  0  0  0
 15 16  1  0  0  0  0
 16 17  2  0  0  0  0
 16 21  1  0  0  0  0
 17 18  1  0  0  0  0
 18 19  2  0  0  0  0
 18 24  1  0  0  0  0
 19 20  1  0  0  0  0
 19 23  1  0  0  0  0
 20 21  2  0  0  0  0
 24 25  1  0  0  0  0
  3 26  1  0  0  0  0
  6 27  1  0  0  0  0
  7 28  1  0  0  0  0
  8 29  1  0  0  0  0
  9 30  1  0  0  0  0
 11 31  1  0  0  0  0
 12 32  1  0  0  0  0
 12 33  1  0  0  0  0
 13 34  1  0  0  0  0
 13 35  1  0  0  0  0
 14 36  1  0  0  0  0
 14 37  1  0  0  0  0
 17 38  1  0  0  0  0
 20 39  1  0  0  0  0
 21 40  1  0  0  0  0
 24 41  1  0  0  0  0
 24 42  1  0  0  0  0
 25 43  1  0  0  0  0
 25 44  1  0  0  0  0
 25 45  1  0  0  0  0
M  END
> <r_user_dG.exp>
-8.17902305143249

$$$$
36
  -OEChem-05162309453D
 Structure written by MMmdl.
 45 47  0     1  0  0  0  0  0999 V2000
    3.6486  -50.1155    7.2936 O   0  0  0  0  0  0  0  0  0  0  0  0
    3.0238  -49.1116    6.8696 C   0  0  0  0  0  0  0  0  0  0  0  0
    3.5639  -47.9877    6.7459 O   0  0  0  0  0  0  0  0  0  0  0  0
    1.5940  -49.2664    6.5154 C   0  0  3  0  0  0  0  0  0  0  0  0
   -0.3066  -50.5037    6.2446 C   0  0  0  0  0  0  0  0  0  0  0  0
   -1.2942  -51.5082    6.1819 C   0  0  0  0  0  0  0  0  0  0  0  0
   -2.5933  -51.1778    5.7270 C   0  0  0  0  0  0  0  0  0  0  0  0
   -2.8850  -49.8590    5.3326 C   0  0  0  0  0  0  0  0  0  0  0  0
   -1.8855  -48.8628    5.3863 C   0  0  0  0  0  0  0  0  0  0  0  0
   -0.5718  -49.1585    5.8504 C   0  0  0  0  0  0  0  0  0  0  0  0
    0.6453  -48.4011    6.0244 C   0  0  0  0  0  0  0  0  0  0  0  0
    0.8699  -46.9540    5.7115 C   0  0  0  0  0  0  0  0  0  0  0  0
    0.8705  -46.0612    6.9633 C   0  0  0  0  0  0  0  0  0  0  0  0
   -0.5079  -45.9153    7.6192 C   0  0  0  0  0  0  0  0  0  0  0  0
   -1.3791  -45.2890    6.6807 O   0  0  0  0  0  0  0  0  0  0  0  0
   -2.7075  -45.1673    7.0098 C   0  0  0  0  0  0  0  0  0  0  0  0
   -3.2736  -45.5369    8.2558 C   0  0  0  0  0  0  0  0  0  0  0  0
   -4.6559  -45.3670    8.4996 C   0  0  0  0  0  0  0  0  0  0  0  0
   -5.4813  -44.8248    7.4876 C   0  0  0  0  0  0  0  0  0  0  0  0
   -4.9225  -44.4588    6.2513 C   0  0  0  0  0  0  0  0  0  0  0  0
   -3.5495  -44.6330    6.0174 C   0  0  0  0  0  0  0  0  0  0  0  0
    1.0171  -50.5153    6.6494 N   0  0  0  0  0  0  0  0  0  0  0  0
   -7.1836  -44.6085    7.7292 Cl  0  0  0  0  0  0  0  0  0  0  0  0
   -5.2272  -45.7987    9.8469 C   0  0  0  0  0  0  0  0  0  0  0  0
   -5.7150  -47.2564    9.8165 C   0  0  0  0  0  0  0  0  0  0  0  0
    4.4730  -48.0412    7.0165 H   0  0  0  0  0  0  0  0  0  0  0  0
    1.3036  -49.0129    7.5457 H   0  0  0  0  0  0  0  0  0  0  0  0
   -1.0616  -52.5204    6.4782 H   0  0  0  0  0  0  0  0  0  0  0  0
   -3.3599  -51.9373    5.6827 H   0  0  0  0  0  0  0  0  0  0  0  0
   -3.8770  -49.6077    4.9875 H   0  0  0  0  0  0  0  0  0  0  0  0
   -2.1217  -47.8577    5.0695 H   0  0  0  0  0  0  0  0  0  0  0  0
    1.8422  -46.8513    5.2073 H   0  0  0  0  0  0  0  0  0  0  0  0
    0.0698  -46.6128    5.0381 H   0  0  0  0  0  0  0  0  0  0  0  0
    1.5609  -46.4974    7.7002 H   0  0  0  0  0  0  0  0  0  0  0  0
    1.2255  -45.0606    6.6756 H   0  0  0  0  0  0  0  0  0  0  0  0
   -0.9001  -46.9072    7.8881 H   0  0  0  0  0  0  0  0  0  0  0  0
   -0.4267  -45.2954    8.5243 H   0  0  0  0  0  0  0  0  0  0  0  0
   -2.6422  -45.9527    9.0271 H   0  0  0  0  0  0  0  0  0  0  0  0
   -5.5515  -44.0421    5.4786 H   0  0  0  0  0  0  0  0  0  0  0  0
   -3.1331  -44.3526    5.0611 H   0  0  0  0  0  0  0  0  0  0  0  0
   -4.4449  -45.7004   10.6139 H   0  0  0  0  0  0  0  0  0  0  0  0
   -6.0742  -45.1445   10.1011 H   0  0  0  0  0  0  0  0  0  0  0  0
   -6.1185  -47.5292   10.8028 H   0  0  0  0  0  0  0  0  0  0  0  0
   -6.5024  -47.3636    9.0559 H   0  0  0  0  0  0  0  0  0  0  0  0
   -4.8731  -47.9196    9.5687 H   0  0  0  0  0  0  0  0  0  0  0  0
  1  2  2  0  0  0  0
  2  3  1  0  0  0  0
  2  4  1  0  0  0  0
  4 11  1  0  0  0  0
  4 22  1  0  0  0  0
  5  6  1  0  0  0  0
  5 10  1  0  0  0  0
  5 22  2  0  0  0  0
  6  7  2  0  0  0  0
  7  8  1  0  0  0  0
  8  9  2  0  0  0  0
  9 10  1  0  0  0  0
 10 11  2  0  0  0  0
 11 12  1  0  0  0  0
 12 13  1  0  0  0  0
 13 14  1  0  0  0  0
 14 15  1  0  0  0  0
 15 16  1  0  0  0  0
 16 17  2  0  0  0  0
 16 21  1  0  0  0  0
 17 18  1  0  0  0  0
 18 19  2  0  0  0  0
 18 24  1  0  0  0  0
 19 20  1  0  0  0  0
 19 23  1  0  0  0  0
 20 21  2  0  0  0  0
 24 25  1  0  0  0  0
  3 26  1  0  0  0  0
  4 27  1  0  0  0  0
  6 28  1  0  0  0  0
  7 29  1  0  0  0  0
  8 30  1  0  0  0  0
  9 31  1  0  0  0  0
 12 32  1  0  0  0  0
 12 33  1  0  0  0  0
 13 34  1  0  0  0  0
 13 35  1  0  0  0  0
 14 36  1  0  0  0  0
 14 37  1  0  0  0  0
 17 38  1  0  0  0  0
 20 39  1  0  0  0  0
 21 40  1  0  0  0  0
 24 41  1  0  0  0  0
 24 42  1  0  0  0  0
 25 43  1  0  0  0  0
 25 44  1  0  0  0  0
 25 45  1  0  0  0  0
M  END
> <r_user_dG.exp>
-8.17902305143249

$$$$
36
  -OEChem-05162309453D
 Structure written by MMmdl.
 45 47  0     1  0  0  0  0  0999 V2000
    3.6486  -50.1155    7.2936 O   0  0  0  0  0  0  0  0  0  0  0  0
    3.0238  -49.1116    6.8696 C   0  0  0  0  0  0  0  0  0  0  0  0
    3.5639  -47.9877    6.7459 O   0  0  0  0  0  0  0  0  0  0  0  0
    1.5940  -49.2664    6.5154 C   0  0  0  0  0  0  0  0  0  0  0  0
   -0.3066  -50.5037    6.2446 C   0  0  0  0  0  0  0  0  0  0  0  0
   -1.2942  -51.5082    6.1819 C   0  0  0  0  0  0  0  0  0  0  0  0
   -2.5933  -51.1778    5.7270 C   0  0  0  0  0  0  0  0  0  0  0  0
   -2.8850  -49.8590    5.3326 C   0  0  0  0  0  0  0  0  0  0  0  0
   -1.8855  -48.8628    5.3863 C   0  0  0  0  0  0  0  0  0  0  0  0
   -0.5718  -49.1585    5.8504 C   0  0  3  0  0  0  0  0  0  0  0  0
    0.6453  -48.4011    6.0244 C   0  0  0  0  0  0  0  0  0  0  0  0
    0.8699  -46.9540    5.7115 C   0  0  0  0  0  0  0  0  0  0  0  0
    0.8705  -46.0612    6.9633 C   0  0  0  0  0  0  0  0  0  0  0  0
   -0.5079  -45.9153    7.6192 C   0  0  0  0  0  0  0  0  0  0  0  0
   -1.3791  -45.2890    6.6807 O   0  0  0  0  0  0  0  0  0  0  0  0
   -2.7075  -45.1673    7.0098 C   0  0  0  0  0  0  0  0  0  0  0  0
   -3.2736  -45.5369    8.2558 C   0  0  0  0  0  0  0  0  0  0  0  0
   -4.6559  -45.3670    8.4996 C   0  0  0  0  0  0  0  0  0  0  0  0
   -5.4813  -44.8248    7.4876 C   0  0  0  0  0  0  0  0  0  0  0  0
   -4.9225  -44.4588    6.2513 C   0  0  0  0  0  0  0  0  0  0  0  0
   -3.5495  -44.6330    6.0174 C   0  0  0  0  0  0  0  0  0  0  0  0
    1.0171  -50.5153    6.6494 N   0  0  0  0  0  0  0  0  0  0  0  0
   -7.1836  -44.6085    7.7292 Cl  0  0  0  0  0  0  0  0  0  0  0  0
   -5.2272  -45.7987    9.8469 C   0  0  0  0  0  0  0  0  0  0  0  0
   -5.7150  -47.2564    9.8165 C   0  0  0  0  0  0  0  0  0  0  0  0
    4.4730  -48.0412    7.0165 H   0  0  0  0  0  0  0  0  0  0  0  0
   -1.0616  -52.5204    6.4782 H   0  0  0  0  0  0  0  0  0  0  0  0
   -3.3599  -51.9373    5.6827 H   0  0  0  0  0  0  0  0  0  0  0  0
   -3.8770  -49.6077    4.9875 H   0  0  0  0  0  0  0  0  0  0  0  0
   -2.1217  -47.8577    5.0695 H   0  0  0  0  0  0  0  0  0  0  0  0
   -0.8758  -48.9132    6.8787 H   0  0  0  0  0  0  0  0  0  0  0  0
    1.8422  -46.8513    5.2073 H   0  0  0  0  0  0  0  0  0  0  0  0
    0.0698  -46.6128    5.0381 H   0  0  0  0  0  0  0  0  0  0  0  0
    1.5609  -46.4974    7.7002 H   0  0  0  0  0  0  0  0  0  0  0  0
    1.2255  -45.0606    6.6756 H   0  0  0  0  0  0  0  0  0  0  0  0
   -0.9001  -46.9072    7.8881 H   0  0  0  0  0  0  0  0  0  0  0  0
   -0.4267  -45.2954    8.5243 H   0  0  0  0  0  0  0  0  0  0  0  0
   -2.6422  -45.9527    9.0271 H   0  0  0  0  0  0  0  0  0  0  0  0
   -5.5515  -44.0421    5.4786 H   0  0  0  0  0  0  0  0  0  0  0  0
   -3.1331  -44.3526    5.0611 H   0  0  0  0  0  0  0  0  0  0  0  0
   -4.4449  -45.7004   10.6139 H   0  0  0  0  0  0  0  0  0  0  0  0
   -6.0742  -45.1445   10.1011 H   0  0  0  0  0  0  0  0  0  0  0  0
   -6.1185  -47.5292   10.8028 H   0  0  0  0  0  0  0  0  0  0  0  0
   -6.5024  -47.3636    9.0559 H   0  0  0  0  0  0  0  0  0  0  0  0
   -4.8731  -47.9196    9.5687 H   0  0  0  0  0  0  0  0  0  0  0  0
  1  2  2  0  0  0  0
  2  3  1  0  0  0  0
  2  4  1  0  0  0  0
  4 11  2  0  0  0  0
  4 22  1  0  0  0  0
  5  6  1  0  0  0  0
  5 10  1  0  0  0  0
  5 22  2  0  0  0  0
  6  7  2  0  0  0  0
  7  8  1  0  0  0  0
  8  9  2  0  0  0  0
  9 10  1  0  0  0  0
 10 11  1  0  0  0  0
 11 12  1  0  0  0  0
 12 13  1  0  0  0  0
 13 14  1  0  0  0  0
 14 15  1  0  0  0  0
 15 16  1  0  0  0  0
 16 17  2  0  0  0  0
 16 21  1  0  0  0  0
 17 18  1  0  0  0  0
 18 19  2  0  0  0  0
 18 24  1  0  0  0  0
 19 20  1  0  0  0  0
 19 23  1  0  0  0  0
 20 21  2  0  0  0  0
 24 25  1  0  0  0  0
  3 26  1  0  0  0  0
  6 27  1  0  0  0  0
  7 28  1  0  0  0  0
  8 29  1  0  0  0  0
  9 30  1  0  0  0  0
 10 31  1  0  0  0  0
 12 32  1  0  0  0  0
 12 33  1  0  0  0  0
 13 34  1  0  0  0  0
 13 35  1  0  0  0  0
 14 36  1  0  0  0  0
 14 37  1  0  0  0  0
 17 38  1  0  0  0  0
 20 39  1  0  0  0  0
 21 40  1  0  0  0  0
 24 41  1  0  0  0  0
 24 42  1  0  0  0  0
 25 43  1  0  0  0  0
 25 44  1  0  0  0  0
 25 45  1  0  0  0  0
M  END
> <r_user_dG.exp>
-8.17902305143249

$$$$
36
  -OEChem-05162309453D
 Structure written by MMmdl.
 45 47  0     1  0  0  0  0  0999 V2000
    3.6486  -50.1155    7.2936 O   0  0  0  0  0  0  0  0  0  0  0  0
    3.0238  -49.1116    6.8696 C   0  0  0  0  0  0  0  0  0  0  0  0
    3.5639  -47.9877    6.7459 O   0  0  0  0  0  0  0  0  0  0  0  0
    1.5940  -49.2664    6.5154 C   0  0  0  0  0  0  0  0  0  0  0  0
   -0.3066  -50.5037    6.2446 C   0  0  3  0  0  0  0  0  0  0  0  0
   -1.2942  -51.5082    6.1819 C   0  0  0  0  0  0  0  0  0  0  0  0
   -2.5933  -51.1778    5.7270 C   0  0  0  0  0  0  0  0  0  0  0  0
   -2.8850  -49.8590    5.3326 C   0  0  0  0  0  0  0  0  0  0  0  0
   -1.8855  -48.8628    5.3863 C   0  0  0  0  0  0  0  0  0  0  0  0
   -0.5718  -49.1585    5.8504 C   0  0  0  0  0  0  0  0  0  0  0  0
    0.6453  -48.4011    6.0244 C   0  0  0  0  0  0  0  0  0  0  0  0
    0.8699  -46.9540    5.7115 C   0  0  0  0  0  0  0  0  0  0  0  0
    0.8705  -46.0612    6.9633 C   0  0  0  0  0  0  0  0  0  0  0  0
   -0.5079  -45.9153    7.6192 C   0  0  0  0  0  0  0  0  0  0  0  0
   -1.3791  -45.2890    6.6807 O   0  0  0  0  0  0  0  0  0  0  0  0
   -2.7075  -45.1673    7.0098 C   0  0  0  0  0  0  0  0  0  0  0  0
   -3.2736  -45.5369    8.2558 C   0  0  0  0  0  0  0  0  0  0  0  0
   -4.6559  -45.3670    8.4996 C   0  0  0  0  0  0  0  0  0  0  0  0
   -5.4813  -44.8248    7.4876 C   0  0  0  0  0  0  0  0  0  0  0  0
   -4.9225  -44.4588    6.2513 C   0  0  0  0  0  0  0  0  0  0  0  0
   -3.5495  -44.6330    6.0174 C   0  0  0  0  0  0  0  0  0  0  0  0
    1.0171  -50.5153    6.6494 N   0  0  0  0  0  0  0  0  0  0  0  0
   -7.1836  -44.6085    7.7292 Cl  0  0  0  0  0  0  0  0  0  0  0  0
   -5.2272  -45.7987    9.8469 C   0  0  0  0  0  0  0  0  0  0  0  0
   -5.7150  -47.2564    9.8165 C   0  0  0  0  0  0  0  0  0  0  0  0
    4.4730  -48.0412    7.0165 H   0  0  0  0  0  0  0  0  0  0  0  0
    0.0045  -50.7443    5.2173 H   0  0  0  0  0  0  0  0  0  0  0  0
   -1.0616  -52.5204    6.4782 H   0  0  0  0  0  0  0  0  0  0  0  0
   -3.3599  -51.9373    5.6827 H   0  0  0  0  0  0  0  0  0  0  0  0
   -3.8770  -49.6077    4.9875 H   0  0  0  0  0  0  0  0  0  0  0  0
   -2.1217  -47.8577    5.0695 H   0  0  0  0  0  0  0  0  0  0  0  0
    1.8422  -46.8513    5.2073 H   0  0  0  0  0  0  0  0  0  0  0  0
    0.0698  -46.6128    5.0381 H   0  0  0  0  0  0  0  0  0  0  0  0
    1.5609  -46.4974    7.7002 H   0  0  0  0  0  0  0  0  0  0  0  0
    1.2255  -45.0606    6.6756 H   0  0  0  0  0  0  0  0  0  0  0  0
   -0.9001  -46.9072    7.8881 H   0  0  0  0  0  0  0  0  0  0  0  0
   -0.4267  -45.2954    8.5243 H   0  0  0  0  0  0  0  0  0  0  0  0
   -2.6422  -45.9527    9.0271 H   0  0  0  0  0  0  0  0  0  0  0  0
   -5.5515  -44.0421    5.4786 H   0  0  0  0  0  0  0  0  0  0  0  0
   -3.1331  -44.3526    5.0611 H   0  0  0  0  0  0  0  0  0  0  0  0
   -4.4449  -45.7004   10.6139 H   0  0  0  0  0  0  0  0  0  0  0  0
   -6.0742  -45.1445   10.1011 H   0  0  0  0  0  0  0  0  0  0  0  0
   -6.1185  -47.5292   10.8028 H   0  0  0  0  0  0  0  0  0  0  0  0
   -6.5024  -47.3636    9.0559 H   0  0  0  0  0  0  0  0  0  0  0  0
   -4.8731  -47.9196    9.5687 H   0  0  0  0  0  0  0  0  0  0  0  0
  1  2  2  0  0  0  0
  2  3  1  0  0  0  0
  2  4  1  0  0  0  0
  4 11  1  0  0  0  0
  4 22  2  0  0  0  0
  5  6  1  0  0  0  0
  5 10  1  0  0  0  0
  5 22  1  0  0  0  0
  6  7  2  0  0  0  0
  7  8  1  0  0  0  0
  8  9  2  0  0  0  0
  9 10  1  0  0  0  0
 10 11  2  0  0  0  0
 11 12  1  0  0  0  0
 12 13  1  0  0  0  0
 13 14  1  0  0  0  0
 14 15  1  0  0  0  0
 15 16  1  0  0  0  0
 16 17  2  0  0  0  0
 16 21  1  0  0  0  0
 17 18  1  0  0  0  0
 18 19  2  0  0  0  0
 18 24  1  0  0  0  0
 19 20  1  0  0  0  0
 19 23  1  0  0  0  0
 20 21  2  0  0  0  0
 24 25  1  0  0  0  0
  3 26  1  0  0  0  0
  5 27  1  0  0  0  0
  6 28  1  0  0  0  0
  7 29  1  0  0  0  0
  8 30  1  0  0  0  0
  9 31  1  0  0  0  0
 12 32  1  0  0  0  0
 12 33  1  0  0  0  0
 13 34  1  0  0  0  0
 13 35  1  0  0  0  0
 14 36  1  0  0  0  0
 14 37  1  0  0  0  0
 17 38  1  0  0  0  0
 20 39  1  0  0  0  0
 21 40  1  0  0  0  0
 24 41  1  0  0  0  0
 24 42  1  0  0  0  0
 25 43  1  0  0  0  0
 25 44  1  0  0  0  0
 25 45  1  0  0  0  0
M  END
> <r_user_dG.exp>
-8.17902305143249

$$$$
36
  -OEChem-05162309453D
 Structure written by MMmdl.
 45 47  0     0  0  0  0  0  0999 V2000
    3.6486  -50.1155    7.2936 O   0  0  0  0  0  0  0  0  0  0  0  0
    3.0238  -49.1116    6.8696 C   0  0  0  0  0  0  0  0  0  0  0  0
    3.5639  -47.9877    6.7459 O   0  0  0  0  0  0  0  0  0  0  0  0
    1.5940  -49.2664    6.5154 C   0  0  0  0  0  0  0  0  0  0  0  0
   -0.3066  -50.5037    6.2446 C   0  0  0  0  0  0  0  0  0  0  0  0
   -1.2942  -51.5082    6.1819 C   0  0  0  0  0  0  0  0  0  0  0  0
   -2.5933  -51.1778    5.7270 C   0  0  0  0  0  0  0  0  0  0  0  0
   -2.8850  -49.8590    5.3326 C   0  0  0  0  0  0  0  0  0  0  0  0
   -1.8855  -48.8628    5.3863 C   0  0  0  0  0  0  0  0  0  0  0  0
   -0.5718  -49.1585    5.8504 C   0  0  0  0  0  0  0  0  0  0  0  0
    0.6453  -48.4011    6.0244 C   0  0  0  0  0  0  0  0  0  0  0  0
    0.8699  -46.9540    5.7115 C   0  0  0  0  0  0  0  0  0  0  0  0
    0.8705  -46.0612    6.9633 C   0  0  0  0  0  0  0  0  0  0  0  0
   -0.5079  -45.9153    7.6192 C   0  0  0  0  0  0  0  0  0  0  0  0
   -1.3791  -45.2890    6.6807 O   0  0  0  0  0  0  0  0  0  0  0  0
   -2.7075  -45.1673    7.0098 C   0  0  0  0  0  0  0  0  0  0  0  0
   -3.2736  -45.5369    8.2558 C   0  0  0  0  0  0  0  0  0  0  0  0
   -4.6559  -45.3670    8.4996 C   0  0  0  0  0  0  0  0  0  0  0  0
   -5.4813  -44.8248    7.4876 C   0  0  0  0  0  0  0  0  0  0  0  0
   -4.9225  -44.4588    6.2513 C   0  0  0  0  0  0  0  0  0  0  0  0
   -3.5495  -44.6330    6.0174 C   0  0  0  0  0  0  0  0  0  0  0  0
    1.0171  -50.5153    6.6494 N   0  0  0  0  0  0  0  0  0  0  0  0
   -7.1836  -44.6085    7.7292 Cl  0  0  0  0  0  0  0  0  0  0  0  0
   -5.2272  -45.7987    9.8469 C   0  0  0  0  0  0  0  0  0  0  0  0
   -5.7150  -47.2564    9.8165 C   0  0  0  0  0  0  0  0  0  0  0  0
    4.4730  -48.0412    7.0165 H   0  0  0  0  0  0  0  0  0  0  0  0
   -1.0616  -52.5204    6.4782 H   0  0  0  0  0  0  0  0  0  0  0  0
   -3.3599  -51.9373    5.6827 H   0  0  0  0  0  0  0  0  0  0  0  0
   -3.2257  -49.9093    4.2879 H   0  0  0  0  0  0  0  0  0  0  0  0
   -3.7110  -49.5131    5.9714 H   0  0  0  0  0  0  0  0  0  0  0  0
   -2.1217  -47.8577    5.0695 H   0  0  0  0  0  0  0  0  0  0  0  0
    1.8422  -46.8513    5.2073 H   0  0  0  0  0  0  0  0  0  0  0  0
    0.0698  -46.6128    5.0381 H   0  0  0  0  0  0  0  0  0  0  0  0
    1.5609  -46.4974    7.7002 H   0  0  0  0  0  0  0  0  0  0  0  0
    1.2255  -45.0606    6.6756 H   0  0  0  0  0  0  0  0  0  0  0  0
   -0.9001  -46.9072    7.8881 H   0  0  0  0  0  0  0  0  0  0  0  0
   -0.4267  -45.2954    8.5243 H   0  0  0  0  0  0  0  0  0  0  0  0
   -2.6422  -45.9527    9.0271 H   0  0  0  0  0  0  0  0  0  0  0  0
   -5.5515  -44.0421    5.4786 H   0  0  0  0  0  0  0  0  0  0  0  0
   -3.1331  -44.3526    5.0611 H   0  0  0  0  0  0  0  0  0  0  0  0
   -4.4449  -45.7004   10.6139 H   0  0  0  0  0  0  0  0  0  0  0  0
   -6.0742  -45.1445   10.1011 H   0  0  0  0  0  0  0  0  0  0  0  0
   -6.1185  -47.5292   10.8028 H   0  0  0  0  0  0  0  0  0  0  0  0
   -6.5024  -47.3636    9.0559 H   0  0  0  0  0  0  0  0  0  0  0  0
   -4.8731  -47.9196    9.5687 H   0  0  0  0  0  0  0  0  0  0  0  0
  1  2  2  0  0  0  0
  2  3  1  0  0  0  0
  2  4  1  0  0  0  0
  4 11  2  0  0  0  0
  4 22  1  0  0  0  0
  5  6  1  0  0  0  0
  5 10  1  0  0  0  0
  5 22  2  0  0  0  0
  6  7  2  0  0  0  0
  7  8  1  0  0  0  0
  8  9  1  0  0  0  0
  9 10  2  0  0  0  0
 10 11  1  0  0  0  0
 11 12  1  0  0  0  0
 12 13  1  0  0  0  0
 13 14  1  0  0  0  0
 14 15  1  0  0  0  0
 15 16  1  0  0  0  0
 16 17  2  0  0  0  0
 16 21  1  0  0  0  0
 17 18  1  0  0  0  0
 18 19  2  0  0  0  0
 18 24  1  0  0  0  0
 19 20  1  0  0  0  0
 19 23  1  0  0  0  0
 20 21  2  0  0  0  0
 24 25  1  0  0  0  0
  3 26  1  0  0  0  0
  6 27  1  0  0  0  0
  7 28  1  0  0  0  0
  8 29  1  0  0  0  0
  8 30  1  0  0  0  0
  9 31  1  0  0  0  0
 12 32  1  0  0  0  0
 12 33  1  0  0  0  0
 13 34  1  0  0  0  0
 13 35  1  0  0  0  0
 14 36  1  0  0  0  0
 14 37  1  0  0  0  0
 17 38  1  0  0  0  0
 20 39  1  0  0  0  0
 21 40  1  0  0  0  0
 24 41  1  0  0  0  0
 24 42  1  0  0  0  0
 25 43  1  0  0  0  0
 25 44  1  0  0  0  0
 25 45  1  0  0  0  0
M  END
> <r_user_dG.exp>
-8.17902305143249

$$$$
36
  -OEChem-05162309453D
 Structure written by MMmdl.
 45 47  0     0  0  0  0  0  0999 V2000
    3.6486  -50.1155    7.2936 O   0  0  0  0  0  0  0  0  0  0  0  0
    3.0238  -49.1116    6.8696 C   0  0  0  0  0  0  0  0  0  0  0  0
    3.5639  -47.9877    6.7459 O   0  0  0  0  0  0  0  0  0  0  0  0
    1.5940  -49.2664    6.5154 C   0  0  0  0  0  0  0  0  0  0  0  0
   -0.3066  -50.5037    6.2446 C   0  0  0  0  0  0  0  0  0  0  0  0
   -1.2942  -51.5082    6.1819 C   0  0  0  0  0  0  0  0  0  0  0  0
   -2.5933  -51.1778    5.7270 C   0  0  0  0  0  0  0  0  0  0  0  0
   -2.8850  -49.8590    5.3326 C   0  0  0  0  0  0  0  0  0  0  0  0
   -1.8855  -48.8628    5.3863 C   0  0  0  0  0  0  0  0  0  0  0  0
   -0.5718  -49.1585    5.8504 C   0  0  0  0  0  0  0  0  0  0  0  0
    0.6453  -48.4011    6.0244 C   0  0  0  0  0  0  0  0  0  0  0  0
    0.8699  -46.9540    5.7115 C   0  0  0  0  0  0  0  0  0  0  0  0
    0.8705  -46.0612    6.9633 C   0  0  0  0  0  0  0  0  0  0  0  0
   -0.5079  -45.9153    7.6192 C   0  0  0  0  0  0  0  0  0  0  0  0
   -1.3791  -45.2890    6.6807 O   0  0  0  0  0  0  0  0  0  0  0  0
   -2.7075  -45.1673    7.0098 C   0  0  0  0  0  0  0  0  0  0  0  0
   -3.2736  -45.5369    8.2558 C   0  0  0  0  0  0  0  0  0  0  0  0
   -4.6559  -45.3670    8.4996 C   0  0  0  0  0  0  0  0  0  0  0  0
   -5.4813  -44.8248    7.4876 C   0  0  0  0  0  0  0  0  0  0  0  0
   -4.9225  -44.4588    6.2513 C   0  0  0  0  0  0  0  0  0  0  0  0
   -3.5495  -44.6330    6.0174 C   0  0  0  0  0  0  0  0  0  0  0  0
    1.0171  -50.5153    6.6494 N   0  0  0  0  0  0  0  0  0  0  0  0
   -7.1836  -44.6085    7.7292 Cl  0  0  0  0  0  0  0  0  0  0  0  0
   -5.2272  -45.7987    9.8469 C   0  0  0  0  0  0  0  0  0  0  0  0
   -5.7150  -47.2564    9.8165 C   0  0  0  0  0  0  0  0  0  0  0  0
    4.4730  -48.0412    7.0165 H   0  0  0  0  0  0  0  0  0  0  0  0
   -1.0616  -52.5204    6.4782 H   0  0  0  0  0  0  0  0  0  0  0  0
   -2.7997  -51.8220    4.8596 H   0  0  0  0  0  0  0  0  0  0  0  0
   -3.2885  -51.4268    6.5423 H   0  0  0  0  0  0  0  0  0  0  0  0
   -3.8770  -49.6077    4.9875 H   0  0  0  0  0  0  0  0  0  0  0  0
   -2.1217  -47.8577    5.0695 H   0  0  0  0  0  0  0  0  0  0  0  0
    1.8422  -46.8513    5.2073 H   0  0  0  0  0  0  0  0  0  0  0  0
    0.0698  -46.6128    5.0381 H   0  0  0  0  0  0  0  0  0  0  0  0
    1.5609  -46.4974    7.7002 H   0  0  0  0  0  0  0  0  0  0  0  0
    1.2255  -45.0606    6.6756 H   0  0  0  0  0  0  0  0  0  0  0  0
   -0.9001  -46.9072    7.8881 H   0  0  0  0  0  0  0  0  0  0  0  0
   -0.4267  -45.2954    8.5243 H   0  0  0  0  0  0  0  0  0  0  0  0
   -2.6422  -45.9527    9.0271 H   0  0  0  0  0  0  0  0  0  0  0  0
   -5.5515  -44.0421    5.4786 H   0  0  0  0  0  0  0  0  0  0  0  0
   -3.1331  -44.3526    5.0611 H   0  0  0  0  0  0  0  0  0  0  0  0
   -4.4449  -45.7004   10.6139 H   0  0  0  0  0  0  0  0  0  0  0  0
   -6.0742  -45.1445   10.1011 H   0  0  0  0  0  0  0  0  0  0  0  0
   -6.1185  -47.5292   10.8028 H   0  0  0  0  0  0  0  0  0  0  0  0
   -6.5024  -47.3636    9.0559 H   0  0  0  0  0  0  0  0  0  0  0  0
   -4.8731  -47.9196    9.5687 H   0  0  0  0  0  0  0  0  0  0  0  0
  1  2  2  0  0  0  0
  2  3  1  0  0  0  0
  2  4  1  0  0  0  0
  4 11  1  0  0  0  0
  4 22  2  0  0  0  0
  5  6  2  0  0  0  0
  5 10  1  0  0  0  0
  5 22  1  0  0  0  0
  6  7  1  0  0  0  0
  7  8  1  0  0  0  0
  8  9  2  0  0  0  0
  9 10  1  0  0  0  0
 10 11  2  0  0  0  0
 11 12  1  0  0  0  0
 12 13  1  0  0  0  0
 13 14  1  0  0  0  0
 14 15  1  0  0  0  0
 15 16  1  0  0  0  0
 16 17  2  0  0  0  0
 16 21  1  0  0  0  0
 17 18  1  0  0  0  0
 18 19  2  0  0  0  0
 18 24  1  0  0  0  0
 19 20  1  0  0  0  0
 19 23  1  0  0  0  0
 20 21  2  0  0  0  0
 24 25  1  0  0  0  0
  3 26  1  0  0  0  0
  6 27  1  0  0  0  0
  7 28  1  0  0  0  0
  7 29  1  0  0  0  0
  8 30  1  0  0  0  0
  9 31  1  0  0  0  0
 12 32  1  0  0  0  0
 12 33  1  0  0  0  0
 13 34  1  0  0  0  0
 13 35  1  0  0  0  0
 14 36  1  0  0  0  0
 14 37  1  0  0  0  0
 17 38  1  0  0  0  0
 20 39  1  0  0  0  0
 21 40  1  0  0  0  0
 24 41  1  0  0  0  0
 24 42  1  0  0  0  0
 25 43  1  0  0  0  0
 25 44  1  0  0  0  0
 25 45  1  0  0  0  0
M  END
> <r_user_dG.exp>
-8.17902305143249

$$$$
36
  -OEChem-05162309453D
 Structure written by MMmdl.
 45 47  0     0  0  0  0  0  0999 V2000
    3.6486  -50.1155    7.2936 O   0  0  0  0  0  0  0  0  0  0  0  0
    3.0238  -49.1116    6.8696 C   0  0  0  0  0  0  0  0  0  0  0  0
    3.5639  -47.9877    6.7459 O   0  0  0  0  0  0  0  0  0  0  0  0
    1.5940  -49.2664    6.5154 C   0  0  0  0  0  0  0  0  0  0  0  0
   -0.3066  -50.5037    6.2446 C   0  0  0  0  0  0  0  0  0  0  0  0
   -1.2942  -51.5082    6.1819 C   0  0  0  0  0  0  0  0  0  0  0  0
   -2.5933  -51.1778    5.7270 C   0  0  0  0  0  0  0  0  0  0  0  0
   -2.8850  -49.8590    5.3326 C   0  0  0  0  0  0  0  0  0  0  0  0
   -1.8855  -48.8628    5.3863 C   0  0  0  0  0  0  0  0  0  0  0  0
   -0.5718  -49.1585    5.8504 C   0  0  0  0  0  0  0  0  0  0  0  0
    0.6453  -48.4011    6.0244 C   0  0  0  0  0  0  0  0  0  0  0  0
    0.8699  -46.9540    5.7115 C   0  0  0  0  0  0  0  0  0  0  0  0
    0.8705  -46.0612    6.9633 C   0  0  0  0  0  0  0  0  0  0  0  0
   -0.5079  -45.9153    7.6192 C   0  0  0  0  0  0  0  0  0  0  0  0
   -1.3791  -45.2890    6.6807 O   0  0  0  0  0  0  0  0  0  0  0  0
   -2.7075  -45.1673    7.0098 C   0  0  0  0  0  0  0  0  0  0  0  0
   -3.2736  -45.5369    8.2558 C   0  0  0  0  0  0  0  0  0  0  0  0
   -4.6559  -45.3670    8.4996 C   0  0  0  0  0  0  0  0  0  0  0  0
   -5.4813  -44.8248    7.4876 C   0  0  0  0  0  0  0  0  0  0  0  0
   -4.9225  -44.4588    6.2513 C   0  0  0  0  0  0  0  0  0  0  0  0
   -3.5495  -44.6330    6.0174 C   0  0  0  0  0  0  0  0  0  0  0  0
    1.0171  -50.5153    6.6494 N   0  0  0  0  0  0  0  0  0  0  0  0
   -7.1836  -44.6085    7.7292 Cl  0  0  0  0  0  0  0  0  0  0  0  0
   -5.2272  -45.7987    9.8469 C   0  0  0  0  0  0  0  0  0  0  0  0
   -5.7150  -47.2564    9.8165 C   0  0  0  0  0  0  0  0  0  0  0  0
    4.4730  -48.0412    7.0165 H   0  0  0  0  0  0  0  0  0  0  0  0
   -0.9107  -52.2934    5.5137 H   0  0  0  0  0  0  0  0  0  0  0  0
   -1.4041  -51.9134    7.1986 H   0  0  0  0  0  0  0  0  0  0  0  0
   -3.3599  -51.9373    5.6827 H   0  0  0  0  0  0  0  0  0  0  0  0
   -3.8770  -49.6077    4.9875 H   0  0  0  0  0  0  0  0  0  0  0  0
   -2.1217  -47.8577    5.0695 H   0  0  0  0  0  0  0  0  0  0  0  0
    1.8422  -46.8513    5.2073 H   0  0  0  0  0  0  0  0  0  0  0  0
    0.0698  -46.6128    5.0381 H   0  0  0  0  0  0  0  0  0  0  0  0
    1.5609  -46.4974    7.7002 H   0  0  0  0  0  0  0  0  0  0  0  0
    1.2255  -45.0606    6.6756 H   0  0  0  0  0  0  0  0  0  0  0  0
   -0.9001  -46.9072    7.8881 H   0  0  0  0  0  0  0  0  0  0  0  0
   -0.4267  -45.2954    8.5243 H   0  0  0  0  0  0  0  0  0  0  0  0
   -2.6422  -45.9527    9.0271 H   0  0  0  0  0  0  0  0  0  0  0  0
   -5.5515  -44.0421    5.4786 H   0  0  0  0  0  0  0  0  0  0  0  0
   -3.1331  -44.3526    5.0611 H   0  0  0  0  0  0  0  0  0  0  0  0
   -4.4449  -45.7004   10.6139 H   0  0  0  0  0  0  0  0  0  0  0  0
   -6.0742  -45.1445   10.1011 H   0  0  0  0  0  0  0  0  0  0  0  0
   -6.1185  -47.5292   10.8028 H   0  0  0  0  0  0  0  0  0  0  0  0
   -6.5024  -47.3636    9.0559 H   0  0  0  0  0  0  0  0  0  0  0  0
   -4.8731  -47.9196    9.5687 H   0  0  0  0  0  0  0  0  0  0  0  0
  1  2  2  0  0  0  0
  2  3  1  0  0  0  0
  2  4  1  0  0  0  0
  4 11  2  0  0  0  0
  4 22  1  0  0  0  0
  5  6  1  0  0  0  0
  5 10  1  0  0  0  0
  5 22  2  0  0  0  0
  6  7  1  0  0  0  0
  7  8  2  0  0  0  0
  8  9  1  0  0  0  0
  9 10  2  0  0  0  0
 10 11  1  0  0  0  0
 11 12  1  0  0  0  0
 12 13  1  0  0  0  0
 13 14  1  0  0  0  0
 14 15  1  0  0  0  0
 15 16  1  0  0  0  0
 16 17  2  0  0  0  0
 16 21  1  0  0  0  0
 17 18  1  0  0  0  0
 18 19  2  0  0  0  0
 18 24  1  0  0  0  0
 19 20  1  0  0  0  0
 19 23  1  0  0  0  0
 20 21  2  0  0  0  0
 24 25  1  0  0  0  0
  3 26  1  0  0  0  0
  6 27  1  0  0  0  0
  6 28  1  0  0  0  0
  7 29  1  0  0  0  0
  8 30  1  0  0  0  0
  9 31  1  0  0  0  0
 12 32  1  0  0  0  0
 12 33  1  0  0  0  0
 13 34  1  0  0  0  0
 13 35  1  0  0  0  0
 14 36  1  0  0  0  0
 14 37  1  0  0  0  0
 17 38  1  0  0  0  0
 20 39  1  0  0  0  0
 21 40  1  0  0  0  0
 24 41  1  0  0  0  0
 24 42  1  0  0  0  0
 25 43  1  0  0  0  0
 25 44  1  0  0  0  0
 25 45  1  0  0  0  0
M  END
> <r_user_dG.exp>
-8.17902305143249

$$$$
36
  -OEChem-05162309453D
 Structure written by MMmdl.
 45 47  0     0  0  0  0  0  0999 V2000
    3.6486  -50.1155    7.2936 O   0  0  0  0  0  0  0  0  0  0  0  0
    3.0238  -49.1116    6.8696 C   0  0  0  0  0  0  0  0  0  0  0  0
    3.5639  -47.9877    6.7459 O   0  0  0  0  0  0  0  0  0  0  0  0
    1.5940  -49.2664    6.5154 C   0  0  0  0  0  0  0  0  0  0  0  0
   -0.3066  -50.5037    6.2446 C   0  0  0  0  0  0  0  0  0  0  0  0
   -1.2942  -51.5082    6.1819 C   0  0  0  0  0  0  0  0  0  0  0  0
   -2.5933  -51.1778    5.7270 C   0  0  0  0  0  0  0  0  0  0  0  0
   -2.8850  -49.8590    5.3326 C   0  0  0  0  0  0  0  0  0  0  0  0
   -1.8855  -48.8628    5.3863 C   0  0  0  0  0  0  0  0  0  0  0  0
   -0.5718  -49.1585    5.8504 C   0  0  0  0  0  0  0  0  0  0  0  0
    0.6453  -48.4011    6.0244 C   0  0  0  0  0  0  0  0  0  0  0  0
    0.8699  -46.9540    5.7115 C   0  0  0  0  0  0  0  0  0  0  0  0
    0.8705  -46.0612    6.9633 C   0  0  0  0  0  0  0  0  0  0  0  0
   -0.5079  -45.9153    7.6192 C   0  0  0  0  0  0  0  0  0  0  0  0
   -1.3791  -45.2890    6.6807 O   0  0  0  0  0  0  0  0  0  0  0  0
   -2.7075  -45.1673    7.0098 C   0  0  0  0  0  0  0  0  0  0  0  0
   -3.2736  -45.5369    8.2558 C   0  0  0  0  0  0  0  0  0  0  0  0
   -4.6559  -45.3670    8.4996 C   0  0  0  0  0  0  0  0  0  0  0  0
   -5.4813  -44.8248    7.4876 C   0  0  0  0  0  0  0  0  0  0  0  0
   -4.9225  -44.4588    6.2513 C   0  0  0  0  0  0  0  0  0  0  0  0
   -3.5495  -44.6330    6.0174 C   0  0  0  0  0  0  0  0  0  0  0  0
    1.0171  -50.5153    6.6494 N   0  0  0  0  0  0  0  0  0  0  0  0
   -7.1836  -44.6085    7.7292 Cl  0  0  0  0  0  0  0  0  0  0  0  0
   -5.2272  -45.7987    9.8469 C   0  0  0  0  0  0  0  0  0  0  0  0
   -5.7150  -47.2564    9.8165 C   0  0  0  0  0  0  0  0  0  0  0  0
    4.4730  -48.0412    7.0165 H   0  0  0  0  0  0  0  0  0  0  0  0
   -1.0616  -52.5204    6.4782 H   0  0  0  0  0  0  0  0  0  0  0  0
   -3.3599  -51.9373    5.6827 H   0  0  0  0  0  0  0  0  0  0  0  0
   -3.8770  -49.6077    4.9875 H   0  0  0  0  0  0  0  0  0  0  0  0
   -1.7746  -48.4772    4.3621 H   0  0  0  0  0  0  0  0  0  0  0  0
   -2.2742  -48.0663    6.0379 H   0  0  0  0  0  0  0  0  0  0  0  0
    1.8422  -46.8513    5.2073 H   0  0  0  0  0  0  0  0  0  0  0  0
    0.0698  -46.6128    5.0381 H   0  0  0  0  0  0  0  0  0  0  0  0
    1.5609  -46.4974    7.7002 H   0  0  0  0  0  0  0  0  0  0  0  0
    1.2255  -45.0606    6.6756 H   0  0  0  0  0  0  0  0  0  0  0  0
   -0.9001  -46.9072    7.8881 H   0  0  0  0  0  0  0  0  0  0  0  0
   -0.4267  -45.2954    8.5243 H   0  0  0  0  0  0  0  0  0  0  0  0
   -2.6422  -45.9527    9.0271 H   0  0  0  0  0  0  0  0  0  0  0  0
   -5.5515  -44.0421    5.4786 H   0  0  0  0  0  0  0  0  0  0  0  0
   -3.1331  -44.3526    5.0611 H   0  0  0  0  0  0  0  0  0  0  0  0
   -4.4449  -45.7004   10.6139 H   0  0  0  0  0  0  0  0  0  0  0  0
   -6.0742  -45.1445   10.1011 H   0  0  0  0  0  0  0  0  0  0  0  0
   -6.1185  -47.5292   10.8028 H   0  0  0  0  0  0  0  0  0  0  0  0
   -6.5024  -47.3636    9.0559 H   0  0  0  0  0  0  0  0  0  0  0  0
   -4.8731  -47.9196    9.5687 H   0  0  0  0  0  0  0  0  0  0  0  0
  1  2  2  0  0  0  0
  2  3  1  0  0  0  0
  2  4  1  0  0  0  0
  4 11  1  0  0  0  0
  4 22  2  0  0  0  0
  5  6  2  0  0  0  0
  5 10  1  0  0  0  0
  5 22  1  0  0  0  0
  6  7  1  0  0  0  0
  7  8  2  0  0  0  0
  8  9  1  0  0  0  0
  9 10  1  0  0  0  0
 10 11  2  0  0  0  0
 11 12  1  0  0  0  0
 12 13  1  0  0  0  0
 13 14  1  0  0  0  0
 14 15  1  0  0  0  0
 15 16  1  0  0  0  0
 16 17  2  0  0  0  0
 16 21  1  0  0  0  0
 17 18  1  0  0  0  0
 18 19  2  0  0  0  0
 18 24  1  0  0  0  0
 19 20  1  0  0  0  0
 19 23  1  0  0  0  0
 20 21  2  0  0  0  0
 24 25  1  0  0  0  0
  3 26  1  0  0  0  0
  6 27  1  0  0  0  0
  7 28  1  0  0  0  0
  8 29  1  0  0  0  0
  9 30  1  0  0  0  0
  9 31  1  0  0  0  0
 12 32  1  0  0  0  0
 12 33  1  0  0  0  0
 13 34  1  0  0  0  0
 13 35  1  0  0  0  0
 14 36  1  0  0  0  0
 14 37  1  0  0  0  0
 17 38  1  0  0  0  0
 20 39  1  0  0  0  0
 21 40  1  0  0  0  0
 24 41  1  0  0  0  0
 24 42  1  0  0  0  0
 25 43  1  0  0  0  0
 25 44  1  0  0  0  0
 25 45  1  0  0  0  0
M  END
> <r_user_dG.exp>
-8.17902305143249

$$$$
36
  -OEChem-05162309453D
 Structure written by MMmdl.
 45 47  0     0  0  0  0  0  0999 V2000
    3.6486  -50.1155    7.2936 O   0  0  0  0  0  0  0  0  0  0  0  0
    3.0238  -49.1116    6.8696 C   0  0  0  0  0  0  0  0  0  0  0  0
    3.5639  -47.9877    6.7459 O   0  0  0  0  0  0  0  0  0  0  0  0
    1.5940  -49.2664    6.5154 C   0  0  0  0  0  0  0  0  0  0  0  0
   -0.3066  -50.5037    6.2446 C   0  0  0  0  0  0  0  0  0  0  0  0
   -1.2942  -51.5082    6.1819 C   0  0  0  0  0  0  0  0  0  0  0  0
   -2.5933  -51.1778    5.7270 C   0  0  0  0  0  0  0  0  0  0  0  0
   -2.8850  -49.8590    5.3326 C   0  0  0  0  0  0  0  0  0  0  0  0
   -1.8855  -48.8628    5.3863 C   0  0  0  0  0  0  0  0  0  0  0  0
   -0.5718  -49.1585    5.8504 C   0  0  0  0  0  0  0  0  0  0  0  0
    0.6453  -48.4011    6.0244 C   0  0  0  0  0  0  0  0  0  0  0  0
    0.8699  -46.9540    5.7115 C   0  0  0  0  0  0  0  0  0  0  0  0
    0.8705  -46.0612    6.9633 C   0  0  0  0  0  0  0  0  0  0  0  0
   -0.5079  -45.9153    7.6192 C   0  0  0  0  0  0  0  0  0  0  0  0
   -1.3791  -45.2890    6.6807 O   0  0  0  0  0  0  0  0  0  0  0  0
   -2.7075  -45.1673    7.0098 C   0  0  0  0  0  0  0  0  0  0  0  0
   -3.2736  -45.5369    8.2558 C   0  0  0  0  0  0  0  0  0  0  0  0
   -4.6559  -45.3670    8.4996 C   0  0  0  0  0  0  0  0  0  0  0  0
   -5.4813  -44.8248    7.4876 C   0  0  0  0  0  0  0  0  0  0  0  0
   -4.9225  -44.4588    6.2513 C   0  0  0  0  0  0  0  0  0  0  0  0
   -3.5495  -44.6330    6.0174 C   0  0  0  0  0  0  0  0  0  0  0  0
    1.0171  -50.5153    6.6494 N   0  0  0  0  0  0  0  0  0  0  0  0
   -7.1836  -44.6085    7.7292 Cl  0  0  0  0  0  0  0  0  0  0  0  0
   -5.2272  -45.7987    9.8469 C   0  0  0  0  0  0  0  0  0  0  0  0
   -5.7150  -47.2564    9.8165 C   0  0  0  0  0  0  0  0  0  0  0  0
    3.0666  -50.8661    7.3136 H   0  0  0  0  0  0  0  0  0  0  0  0
    2.9282  -47.3653    6.4127 H   0  0  0  0  0  0  0  0  0  0  0  0
   -1.0616  -52.5204    6.4782 H   0  0  0  0  0  0  0  0  0  0  0  0
   -3.3599  -51.9373    5.6827 H   0  0  0  0  0  0  0  0  0  0  0  0
   -3.8770  -49.6077    4.9875 H   0  0  0  0  0  0  0  0  0  0  0  0
   -2.1217  -47.8577    5.0695 H   0  0  0  0  0  0  0  0  0  0  0  0
    1.8422  -46.8513    5.2073 H   0  0  0  0  0  0  0  0  0  0  0  0
    0.0698  -46.6128    5.0381 H   0  0  0  0  0  0  0  0  0  0  0  0
    1.5609  -46.4974    7.7002 H   0  0  0  0  0  0  0  0  0  0  0  0
    1.2255  -45.0606    6.6756 H   0  0  0  0  0  0  0  0  0  0  0  0
   -0.9001  -46.9072    7.8881 H   0  0  0  0  0  0  0  0  0  0  0  0
   -0.4267  -45.2954    8.5243 H   0  0  0  0  0  0  0  0  0  0  0  0
   -2.6422  -45.9527    9.0271 H   0  0  0  0  0  0  0  0  0  0  0  0
   -5.5515  -44.0421    5.4786 H   0  0  0  0  0  0  0  0  0  0  0  0
   -3.1331  -44.3526    5.0611 H   0  0  0  0  0  0  0  0  0  0  0  0
   -4.4449  -45.7004   10.6139 H   0  0  0  0  0  0  0  0  0  0  0  0
   -6.0742  -45.1445   10.1011 H   0  0  0  0  0  0  0  0  0  0  0  0
   -6.1185  -47.5292   10.8028 H   0  0  0  0  0  0  0  0  0  0  0  0
   -6.5024  -47.3636    9.0559 H   0  0  0  0  0  0  0  0  0  0  0  0
   -4.8731  -47.9196    9.5687 H   0  0  0  0  0  0  0  0  0  0  0  0
  1  2  1  0  0  0  0
  2  3  1  0  0  0  0
  2  4  2  0  0  0  0
  4 11  1  0  0  0  0
  4 22  1  0  0  0  0
  5  6  1  0  0  0  0
  5 10  1  0  0  0  0
  5 22  2  0  0  0  0
  6  7  2  0  0  0  0
  7  8  1  0  0  0  0
  8  9  2  0  0  0  0
  9 10  1  0  0  0  0
 10 11  2  0  0  0  0
 11 12  1  0  0  0  0
 12 13  1  0  0  0  0
 13 14  1  0  0  0  0
 14 15  1  0  0  0  0
 15 16  1  0  0  0  0
 16 17  2  0  0  0  0
 16 21  1  0  0  0  0
 17 18  1  0  0  0  0
 18 19  2  0  0  0  0
 18 24  1  0  0  0  0
 19 20  1  0  0  0  0
 19 23  1  0  0  0  0
 20 21  2  0  0  0  0
 24 25  1  0  0  0  0
  1 26  1  0  0  0  0
  3 27  1  0  0  0  0
  6 28  1  0  0  0  0
  7 29  1  0  0  0  0
  8 30  1  0  0  0  0
  9 31  1  0  0  0  0
 12 32  1  0  0  0  0
 12 33  1  0  0  0  0
 13 34  1  0  0  0  0
 13 35  1  0  0  0  0
 14 36  1  0  0  0  0
 14 37  1  0  0  0  0
 17 38  1  0  0  0  0
 20 39  1  0  0  0  0
 21 40  1  0  0  0  0
 24 41  1  0  0  0  0
 24 42  1  0  0  0  0
 25 43  1  0  0  0  0
 25 44  1  0  0  0  0
 25 45  1  0  0  0  0
M  END
> <r_user_dG.exp>
-8.17902305143249

$$$$
