68
  -OEChem-05162309453D
 Structure written by MMmdl.
 44 47  0     0  0  0  0  0  0999 V2000
    3.7726  -49.6838    6.9455 O   0  0  0  0  0  0  0  0  0  0  0  0
    2.9100  -48.7925    6.7501 C   0  0  0  0  0  0  0  0  0  0  0  0
    3.2295  -47.5839    6.7163 O   0  0  0  0  0  0  0  0  0  0  0  0
    1.4913  -49.1838    6.5587 C   0  0  0  0  0  0  0  0  0  0  0  0
   -0.1868  -50.6387    6.5133 C   0  0  0  0  0  0  0  0  0  0  0  0
   -0.9631  -51.8099    6.5963 C   0  0  0  0  0  0  0  0  0  0  0  0
   -2.3546  -51.7196    6.4061 C   0  0  0  0  0  0  0  0  0  0  0  0
   -2.9393  -50.4632    6.1302 C   0  0  0  0  0  0  0  0  0  0  0  0
   -2.1382  -49.2957    6.0374 C   0  0  0  0  0  0  0  0  0  0  0  0
   -0.7392  -49.3608    6.2408 C   0  0  0  0  0  0  0  0  0  0  0  0
    0.3626  -48.4393    6.2579 C   0  0  0  0  0  0  0  0  0  0  0  0
    0.2858  -46.9624    5.9975 C   0  0  0  0  0  0  0  0  0  0  0  0
    0.3099  -46.1147    7.2841 C   0  0  0  0  0  0  0  0  0  0  0  0
   -0.9470  -46.2726    8.1526 C   0  0  0  0  0  0  0  0  0  0  0  0
   -2.0339  -45.7606    7.3984 O   0  0  0  0  0  0  0  0  0  0  0  0
   -3.2649  -45.6384    8.0063 C   0  0  0  0  0  0  0  0  0  0  0  0
   -5.8320  -45.2982    9.1520 C   0  0  0  0  0  0  0  0  0  0  0  0
   -4.8424  -46.0260    9.8383 C   0  0  0  0  0  0  0  0  0  0  0  0
   -3.5646  -46.1963    9.2720 C   0  0  0  0  0  0  0  0  0  0  0  0
   -4.6522  -50.3570    5.9185 Cl  0  0  0  0  0  0  0  0  0  0  0  0
   -5.5501  -44.7469    7.8897 C   0  0  0  0  0  0  0  0  0  0  0  0
   -4.2682  -44.9219    7.3124 C   0  0  0  0  0  0  0  0  0  0  0  0
   -4.0002  -44.3707    6.0384 C   0  0  0  0  0  0  0  0  0  0  0  0
   -4.9987  -43.6492    5.3557 C   0  0  0  0  0  0  0  0  0  0  0  0
   -6.2700  -43.4716    5.9396 C   0  0  0  0  0  0  0  0  0  0  0  0
   -6.5447  -44.0200    7.2054 C   0  0  0  0  0  0  0  0  0  0  0  0
    1.1760  -50.5215    6.6916 O   0  0  0  0  0  0  0  0  0  0  0  0
    4.1654  -47.4993    6.8557 H   0  0  0  0  0  0  0  0  0  0  0  0
   -0.4983  -52.7627    6.8027 H   0  0  0  0  0  0  0  0  0  0  0  0
   -2.9710  -52.6041    6.4705 H   0  0  0  0  0  0  0  0  0  0  0  0
   -2.6011  -48.3470    5.8091 H   0  0  0  0  0  0  0  0  0  0  0  0
    1.1435  -46.6730    5.3726 H   0  0  0  0  0  0  0  0  0  0  0  0
   -0.6491  -46.7512    5.4577 H   0  0  0  0  0  0  0  0  0  0  0  0
    1.1840  -46.4144    7.8809 H   0  0  0  0  0  0  0  0  0  0  0  0
    0.4051  -45.0561    7.0005 H   0  0  0  0  0  0  0  0  0  0  0  0
   -1.1150  -47.3343    8.3860 H   0  0  0  0  0  0  0  0  0  0  0  0
   -0.8346  -45.7049    9.0880 H   0  0  0  0  0  0  0  0  0  0  0  0
   -6.8078  -45.1631    9.5947 H   0  0  0  0  0  0  0  0  0  0  0  0
   -5.0640  -46.4560   10.8039 H   0  0  0  0  0  0  0  0  0  0  0  0
   -2.8100  -46.7550    9.8057 H   0  0  0  0  0  0  0  0  0  0  0  0
   -3.0277  -44.5032    5.5877 H   0  0  0  0  0  0  0  0  0  0  0  0
   -4.7901  -43.2307    4.3822 H   0  0  0  0  0  0  0  0  0  0  0  0
   -7.0324  -42.9147    5.4151 H   0  0  0  0  0  0  0  0  0  0  0  0
   -7.5181  -43.8840    7.6530 H   0  0  0  0  0  0  0  0  0  0  0  0
  1  2  2  0  0  0  0
  2  3  1  0  0  0  0
  2  4  1  0  0  0  0
  4 11  2  0  0  0  0
  4 27  1  0  0  0  0
  5  6  2  0  0  0  0
  5 10  1  0  0  0  0
  5 27  1  0  0  0  0
  6  7  1  0  0  0  0
  7  8  2  0  0  0  0
  8  9  1  0  0  0  0
  8 20  1  0  0  0  0
  9 10  2  0  0  0  0
 10 11  1  0  0  0  0
 11 12  1  0  0  0  0
 12 13  1  0  0  0  0
 13 14  1  0  0  0  0
 14 15  1  0  0  0  0
 15 16  1  0  0  0  0
 16 19  2  0  0  0  0
 16 22  1  0  0  0  0
 17 18  2  0  0  0  0
 17 21  1  0  0  0  0
 18 19  1  0  0  0  0
 21 22  2  0  0  0  0
 21 26  1  0  0  0  0
 22 23  1  0  0  0  0
 23 24  2  0  0  0  0
 24 25  1  0  0  0  0
 25 26  2  0  0  0  0
  3 28  1  0  0  0  0
  6 29  1  0  0  0  0
  7 30  1  0  0  0  0
  9 31  1  0  0  0  0
 12 32  1  0  0  0  0
 12 33  1  0  0  0  0
 13 34  1  0  0  0  0
 13 35  1  0  0  0  0
 14 36  1  0  0  0  0
 14 37  1  0  0  0  0
 17 38  1  0  0  0  0
 18 39  1  0  0  0  0
 19 40  1  0  0  0  0
 23 41  1  0  0  0  0
 24 42  1  0  0  0  0
 25 43  1  0  0  0  0
 26 44  1  0  0  0  0
M  END
> <r_user_dG.exp>
-7.6896119149271

$$$$
