34
  -OEChem-05162309453D
 Structure written by MMmdl.
 42 44  0     0  0  0  0  0  0999 V2000
    3.8542  -50.1657    7.1652 O   0  0  0  0  0  0  0  0  0  0  0  0
    3.1289  -49.1923    6.8519 C   0  0  0  0  0  0  0  0  0  0  0  0
    3.5613  -48.0246    6.8255 O   0  0  0  0  0  0  0  0  0  0  0  0
    1.7066  -49.4720    6.5208 C   0  0  0  0  0  0  0  0  0  0  0  0
   -0.0964  -50.8628    6.3290 C   0  0  0  0  0  0  0  0  0  0  0  0
   -1.0022  -51.9381    6.3224 C   0  0  0  0  0  0  0  0  0  0  0  0
   -2.3608  -51.6992    5.9962 C   0  0  0  0  0  0  0  0  0  0  0  0
   -2.7795  -50.3974    5.6675 C   0  0  0  0  0  0  0  0  0  0  0  0
   -1.8647  -49.3287    5.6661 C   0  0  0  0  0  0  0  0  0  0  0  0
   -0.4959  -49.5353    6.0071 C   0  0  0  0  0  0  0  0  0  0  0  0
    0.6533  -48.6750    6.1162 C   0  0  0  0  0  0  0  0  0  0  0  0
    0.6653  -47.2011    5.8557 C   0  0  0  0  0  0  0  0  0  0  0  0
    0.2404  -46.4057    7.0971 C   0  0  0  0  0  0  0  0  0  0  0  0
   -0.3171  -45.0238    6.7322 C   0  0  0  0  0  0  0  0  0  0  0  0
   -1.5243  -45.1759    5.9865 O   0  0  0  0  0  0  0  0  0  0  0  0
   -2.7274  -45.1910    6.6616 C   0  0  0  0  0  0  0  0  0  0  0  0
   -2.8647  -45.3931    8.0557 C   0  0  0  0  0  0  0  0  0  0  0  0
   -4.1364  -45.3621    8.6632 C   0  0  0  0  0  0  0  0  0  0  0  0
   -5.2914  -45.1174    7.8895 C   0  0  0  0  0  0  0  0  0  0  0  0
   -5.1599  -44.9490    6.4967 C   0  0  0  0  0  0  0  0  0  0  0  0
   -3.8904  -44.9919    5.8885 C   0  0  0  0  0  0  0  0  0  0  0  0
    1.2567  -50.7778    6.6179 N   0  0  0  0  0  0  0  0  0  0  0  0
   -6.6672  -45.0309    8.5319 C   0  0  0  0  0  0  0  0  0  0  0  0
   -7.4786  -45.9218    7.9588 F   0  0  0  0  0  0  0  0  0  0  0  0
   -6.6158  -45.2723    9.8435 F   0  0  0  0  0  0  0  0  0  0  0  0
   -7.1584  -43.8055    8.3407 F   0  0  0  0  0  0  0  0  0  0  0  0
    4.4790  -48.0206    7.0712 H   0  0  0  0  0  0  0  0  0  0  0  0
   -0.6663  -52.9358    6.5634 H   0  0  0  0  0  0  0  0  0  0  0  0
   -3.0710  -52.5129    6.0001 H   0  0  0  0  0  0  0  0  0  0  0  0
   -3.8135  -50.2164    5.4137 H   0  0  0  0  0  0  0  0  0  0  0  0
   -2.2041  -48.3377    5.4030 H   0  0  0  0  0  0  0  0  0  0  0  0
    1.6827  -46.8975    5.5680 H   0  0  0  0  0  0  0  0  0  0  0  0
   -0.0303  -46.9781    5.0333 H   0  0  0  0  0  0  0  0  0  0  0  0
   -0.5361  -46.9716    7.6327 H   0  0  0  0  0  0  0  0  0  0  0  0
    1.1151  -46.2742    7.7510 H   0  0  0  0  0  0  0  0  0  0  0  0
   -0.5242  -44.4580    7.6525 H   0  0  0  0  0  0  0  0  0  0  0  0
    0.4217  -44.4796    6.1256 H   0  0  0  0  0  0  0  0  0  0  0  0
   -1.9874  -45.5727    8.6594 H   0  0  0  0  0  0  0  0  0  0  0  0
   -4.2275  -45.5265    9.7267 H   0  0  0  0  0  0  0  0  0  0  0  0
   -6.0391  -44.7858    5.8911 H   0  0  0  0  0  0  0  0  0  0  0  0
   -3.8064  -44.8711    4.8186 H   0  0  0  0  0  0  0  0  0  0  0  0
    1.8324  -51.5575    6.8642 H   0  0  0  0  0  0  0  0  0  0  0  0
  1  2  2  0  0  0  0
  2  3  1  0  0  0  0
  2  4  1  0  0  0  0
  4 11  2  0  0  0  0
  4 22  1  0  0  0  0
  5  6  2  0  0  0  0
  5 10  1  0  0  0  0
  5 22  1  0  0  0  0
  6  7  1  0  0  0  0
  7  8  2  0  0  0  0
  8  9  1  0  0  0  0
  9 10  2  0  0  0  0
 10 11  1  0  0  0  0
 11 12  1  0  0  0  0
 12 13  1  0  0  0  0
 13 14  1  0  0  0  0
 14 15  1  0  0  0  0
 15 16  1  0  0  0  0
 16 17  2  0  0  0  0
 16 21  1  0  0  0  0
 17 18  1  0  0  0  0
 18 19  2  0  0  0  0
 19 20  1  0  0  0  0
 19 23  1  0  0  0  0
 20 21  2  0  0  0  0
 23 24  1  0  0  0  0
 23 25  1  0  0  0  0
 23 26  1  0  0  0  0
  3 27  1  0  0  0  0
  6 28  1  0  0  0  0
  7 29  1  0  0  0  0
  8 30  1  0  0  0  0
  9 31  1  0  0  0  0
 12 32  1  0  0  0  0
 12 33  1  0  0  0  0
 13 34  1  0  0  0  0
 13 35  1  0  0  0  0
 14 36  1  0  0  0  0
 14 37  1  0  0  0  0
 17 38  1  0  0  0  0
 18 39  1  0  0  0  0
 20 40  1  0  0  0  0
 21 41  1  0  0  0  0
 22 42  1  0  0  0  0
M  END
> <r_user_dG.exp>
-6.86919156414505

$$$$
34
  -OEChem-05162309453D
 Structure written by MMmdl.
 42 44  0     1  0  0  0  0  0999 V2000
    3.8542  -50.1657    7.1652 O   0  0  0  0  0  0  0  0  0  0  0  0
    3.1289  -49.1923    6.8519 C   0  0  0  0  0  0  0  0  0  0  0  0
    3.5613  -48.0246    6.8255 O   0  0  0  0  0  0  0  0  0  0  0  0
    1.7066  -49.4720    6.5208 C   0  0  0  0  0  0  0  0  0  0  0  0
   -0.0964  -50.8628    6.3290 C   0  0  0  0  0  0  0  0  0  0  0  0
   -1.0022  -51.9381    6.3224 C   0  0  0  0  0  0  0  0  0  0  0  0
   -2.3608  -51.6992    5.9962 C   0  0  0  0  0  0  0  0  0  0  0  0
   -2.7795  -50.3974    5.6675 C   0  0  0  0  0  0  0  0  0  0  0  0
   -1.8647  -49.3287    5.6661 C   0  0  0  0  0  0  0  0  0  0  0  0
   -0.4959  -49.5353    6.0071 C   0  0  0  0  0  0  0  0  0  0  0  0
    0.6533  -48.6750    6.1162 C   0  0  3  0  0  0  0  0  0  0  0  0
    0.6653  -47.2011    5.8557 C   0  0  0  0  0  0  0  0  0  0  0  0
    0.2404  -46.4057    7.0971 C   0  0  0  0  0  0  0  0  0  0  0  0
   -0.3171  -45.0238    6.7322 C   0  0  0  0  0  0  0  0  0  0  0  0
   -1.5243  -45.1759    5.9865 O   0  0  0  0  0  0  0  0  0  0  0  0
   -2.7274  -45.1910    6.6616 C   0  0  0  0  0  0  0  0  0  0  0  0
   -2.8647  -45.3931    8.0557 C   0  0  0  0  0  0  0  0  0  0  0  0
   -4.1364  -45.3621    8.6632 C   0  0  0  0  0  0  0  0  0  0  0  0
   -5.2914  -45.1174    7.8895 C   0  0  0  0  0  0  0  0  0  0  0  0
   -5.1599  -44.9490    6.4967 C   0  0  0  0  0  0  0  0  0  0  0  0
   -3.8904  -44.9919    5.8885 C   0  0  0  0  0  0  0  0  0  0  0  0
    1.2567  -50.7778    6.6179 N   0  0  0  0  0  0  0  0  0  0  0  0
   -6.6672  -45.0309    8.5319 C   0  0  0  0  0  0  0  0  0  0  0  0
   -7.4786  -45.9218    7.9588 F   0  0  0  0  0  0  0  0  0  0  0  0
   -6.6158  -45.2723    9.8435 F   0  0  0  0  0  0  0  0  0  0  0  0
   -7.1584  -43.8055    8.3407 F   0  0  0  0  0  0  0  0  0  0  0  0
    4.4790  -48.0206    7.0712 H   0  0  0  0  0  0  0  0  0  0  0  0
   -0.6663  -52.9358    6.5634 H   0  0  0  0  0  0  0  0  0  0  0  0
   -3.0710  -52.5129    6.0001 H   0  0  0  0  0  0  0  0  0  0  0  0
   -3.8135  -50.2164    5.4137 H   0  0  0  0  0  0  0  0  0  0  0  0
   -2.2041  -48.3377    5.4030 H   0  0  0  0  0  0  0  0  0  0  0  0
    0.9045  -48.8683    5.0629 H   0  0  0  0  0  0  0  0  0  0  0  0
    1.6827  -46.8975    5.5680 H   0  0  0  0  0  0  0  0  0  0  0  0
   -0.0303  -46.9781    5.0333 H   0  0  0  0  0  0  0  0  0  0  0  0
   -0.5361  -46.9716    7.6327 H   0  0  0  0  0  0  0  0  0  0  0  0
    1.1151  -46.2742    7.7510 H   0  0  0  0  0  0  0  0  0  0  0  0
   -0.5242  -44.4580    7.6525 H   0  0  0  0  0  0  0  0  0  0  0  0
    0.4217  -44.4796    6.1256 H   0  0  0  0  0  0  0  0  0  0  0  0
   -1.9874  -45.5727    8.6594 H   0  0  0  0  0  0  0  0  0  0  0  0
   -4.2275  -45.5265    9.7267 H   0  0  0  0  0  0  0  0  0  0  0  0
   -6.0391  -44.7858    5.8911 H   0  0  0  0  0  0  0  0  0  0  0  0
   -3.8064  -44.8711    4.8186 H   0  0  0  0  0  0  0  0  0  0  0  0
  1  2  2  0  0  0  0
  2  3  1  0  0  0  0
  2  4  1  0  0  0  0
  4 11  1  0  0  0  0
  4 22  2  0  0  0  0
  5  6  2  0  0  0  0
  5 10  1  0  0  0  0
  5 22  1  0  0  0  0
  6  7  1  0  0  0  0
  7  8  2  0  0  0  0
  8  9  1  0  0  0  0
  9 10  2  0  0  0  0
 10 11  1  0  0  0  0
 11 12  1  0  0  0  0
 12 13  1  0  0  0  0
 13 14  1  0  0  0  0
 14 15  1  0  0  0  0
 15 16  1  0  0  0  0
 16 17  2  0  0  0  0
 16 21  1  0  0  0  0
 17 18  1  0  0  0  0
 18 19  2  0  0  0  0
 19 20  1  0  0  0  0
 19 23  1  0  0  0  0
 20 21  2  0  0  0  0
 23 24  1  0  0  0  0
 23 25  1  0  0  0  0
 23 26  1  0  0  0  0
  3 27  1  0  0  0  0
  6 28  1  0  0  0  0
  7 29  1  0  0  0  0
  8 30  1  0  0  0  0
  9 31  1  0  0  0  0
 11 32  1  0  0  0  0
 12 33  1  0  0  0  0
 12 34  1  0  0  0  0
 13 35  1  0  0  0  0
 13 36  1  0  0  0  0
 14 37  1  0  0  0  0
 14 38  1  0  0  0  0
 17 39  1  0  0  0  0
 18 40  1  0  0  0  0
 20 41  1  0  0  0  0
 21 42  1  0  0  0  0
M  END
> <r_user_dG.exp>
-6.86919156414505

$$$$
34
  -OEChem-05162309453D
 Structure written by MMmdl.
 42 44  0     1  0  0  0  0  0999 V2000
    3.8542  -50.1657    7.1652 O   0  0  0  0  0  0  0  0  0  0  0  0
    3.1289  -49.1923    6.8519 C   0  0  0  0  0  0  0  0  0  0  0  0
    3.5613  -48.0246    6.8255 O   0  0  0  0  0  0  0  0  0  0  0  0
    1.7066  -49.4720    6.5208 C   0  0  3  0  0  0  0  0  0  0  0  0
   -0.0964  -50.8628    6.3290 C   0  0  0  0  0  0  0  0  0  0  0  0
   -1.0022  -51.9381    6.3224 C   0  0  0  0  0  0  0  0  0  0  0  0
   -2.3608  -51.6992    5.9962 C   0  0  0  0  0  0  0  0  0  0  0  0
   -2.7795  -50.3974    5.6675 C   0  0  0  0  0  0  0  0  0  0  0  0
   -1.8647  -49.3287    5.6661 C   0  0  0  0  0  0  0  0  0  0  0  0
   -0.4959  -49.5353    6.0071 C   0  0  0  0  0  0  0  0  0  0  0  0
    0.6533  -48.6750    6.1162 C   0  0  0  0  0  0  0  0  0  0  0  0
    0.6653  -47.2011    5.8557 C   0  0  0  0  0  0  0  0  0  0  0  0
    0.2404  -46.4057    7.0971 C   0  0  0  0  0  0  0  0  0  0  0  0
   -0.3171  -45.0238    6.7322 C   0  0  0  0  0  0  0  0  0  0  0  0
   -1.5243  -45.1759    5.9865 O   0  0  0  0  0  0  0  0  0  0  0  0
   -2.7274  -45.1910    6.6616 C   0  0  0  0  0  0  0  0  0  0  0  0
   -2.8647  -45.3931    8.0557 C   0  0  0  0  0  0  0  0  0  0  0  0
   -4.1364  -45.3621    8.6632 C   0  0  0  0  0  0  0  0  0  0  0  0
   -5.2914  -45.1174    7.8895 C   0  0  0  0  0  0  0  0  0  0  0  0
   -5.1599  -44.9490    6.4967 C   0  0  0  0  0  0  0  0  0  0  0  0
   -3.8904  -44.9919    5.8885 C   0  0  0  0  0  0  0  0  0  0  0  0
    1.2567  -50.7778    6.6179 N   0  0  0  0  0  0  0  0  0  0  0  0
   -6.6672  -45.0309    8.5319 C   0  0  0  0  0  0  0  0  0  0  0  0
   -7.4786  -45.9218    7.9588 F   0  0  0  0  0  0  0  0  0  0  0  0
   -6.6158  -45.2723    9.8435 F   0  0  0  0  0  0  0  0  0  0  0  0
   -7.1584  -43.8055    8.3407 F   0  0  0  0  0  0  0  0  0  0  0  0
    4.4790  -48.0206    7.0712 H   0  0  0  0  0  0  0  0  0  0  0  0
    1.9831  -49.6434    5.4700 H   0  0  0  0  0  0  0  0  0  0  0  0
   -0.6663  -52.9358    6.5634 H   0  0  0  0  0  0  0  0  0  0  0  0
   -3.0710  -52.5129    6.0001 H   0  0  0  0  0  0  0  0  0  0  0  0
   -3.8135  -50.2164    5.4137 H   0  0  0  0  0  0  0  0  0  0  0  0
   -2.2041  -48.3377    5.4030 H   0  0  0  0  0  0  0  0  0  0  0  0
    1.6827  -46.8975    5.5680 H   0  0  0  0  0  0  0  0  0  0  0  0
   -0.0303  -46.9781    5.0333 H   0  0  0  0  0  0  0  0  0  0  0  0
   -0.5361  -46.9716    7.6327 H   0  0  0  0  0  0  0  0  0  0  0  0
    1.1151  -46.2742    7.7510 H   0  0  0  0  0  0  0  0  0  0  0  0
   -0.5242  -44.4580    7.6525 H   0  0  0  0  0  0  0  0  0  0  0  0
    0.4217  -44.4796    6.1256 H   0  0  0  0  0  0  0  0  0  0  0  0
   -1.9874  -45.5727    8.6594 H   0  0  0  0  0  0  0  0  0  0  0  0
   -4.2275  -45.5265    9.7267 H   0  0  0  0  0  0  0  0  0  0  0  0
   -6.0391  -44.7858    5.8911 H   0  0  0  0  0  0  0  0  0  0  0  0
   -3.8064  -44.8711    4.8186 H   0  0  0  0  0  0  0  0  0  0  0  0
  1  2  2  0  0  0  0
  2  3  1  0  0  0  0
  2  4  1  0  0  0  0
  4 11  1  0  0  0  0
  4 22  1  0  0  0  0
  5  6  1  0  0  0  0
  5 10  1  0  0  0  0
  5 22  2  0  0  0  0
  6  7  2  0  0  0  0
  7  8  1  0  0  0  0
  8  9  2  0  0  0  0
  9 10  1  0  0  0  0
 10 11  2  0  0  0  0
 11 12  1  0  0  0  0
 12 13  1  0  0  0  0
 13 14  1  0  0  0  0
 14 15  1  0  0  0  0
 15 16  1  0  0  0  0
 16 17  2  0  0  0  0
 16 21  1  0  0  0  0
 17 18  1  0  0  0  0
 18 19  2  0  0  0  0
 19 20  1  0  0  0  0
 19 23  1  0  0  0  0
 20 21  2  0  0  0  0
 23 24  1  0  0  0  0
 23 25  1  0  0  0  0
 23 26  1  0  0  0  0
  3 27  1  0  0  0  0
  4 28  1  0  0  0  0
  6 29  1  0  0  0  0
  7 30  1  0  0  0  0
  8 31  1  0  0  0  0
  9 32  1  0  0  0  0
 12 33  1  0  0  0  0
 12 34  1  0  0  0  0
 13 35  1  0  0  0  0
 13 36  1  0  0  0  0
 14 37  1  0  0  0  0
 14 38  1  0  0  0  0
 17 39  1  0  0  0  0
 18 40  1  0  0  0  0
 20 41  1  0  0  0  0
 21 42  1  0  0  0  0
M  END
> <r_user_dG.exp>
-6.86919156414505

$$$$
34
  -OEChem-05162309453D
 Structure written by MMmdl.
 42 44  0     1  0  0  0  0  0999 V2000
    3.8542  -50.1657    7.1652 O   0  0  0  0  0  0  0  0  0  0  0  0
    3.1289  -49.1923    6.8519 C   0  0  0  0  0  0  0  0  0  0  0  0
    3.5613  -48.0246    6.8255 O   0  0  0  0  0  0  0  0  0  0  0  0
    1.7066  -49.4720    6.5208 C   0  0  0  0  0  0  0  0  0  0  0  0
   -0.0964  -50.8628    6.3290 C   0  0  0  0  0  0  0  0  0  0  0  0
   -1.0022  -51.9381    6.3224 C   0  0  0  0  0  0  0  0  0  0  0  0
   -2.3608  -51.6992    5.9962 C   0  0  0  0  0  0  0  0  0  0  0  0
   -2.7795  -50.3974    5.6675 C   0  0  0  0  0  0  0  0  0  0  0  0
   -1.8647  -49.3287    5.6661 C   0  0  0  0  0  0  0  0  0  0  0  0
   -0.4959  -49.5353    6.0071 C   0  0  3  0  0  0  0  0  0  0  0  0
    0.6533  -48.6750    6.1162 C   0  0  0  0  0  0  0  0  0  0  0  0
    0.6653  -47.2011    5.8557 C   0  0  0  0  0  0  0  0  0  0  0  0
    0.2404  -46.4057    7.0971 C   0  0  0  0  0  0  0  0  0  0  0  0
   -0.3171  -45.0238    6.7322 C   0  0  0  0  0  0  0  0  0  0  0  0
   -1.5243  -45.1759    5.9865 O   0  0  0  0  0  0  0  0  0  0  0  0
   -2.7274  -45.1910    6.6616 C   0  0  0  0  0  0  0  0  0  0  0  0
   -2.8647  -45.3931    8.0557 C   0  0  0  0  0  0  0  0  0  0  0  0
   -4.1364  -45.3621    8.6632 C   0  0  0  0  0  0  0  0  0  0  0  0
   -5.2914  -45.1174    7.8895 C   0  0  0  0  0  0  0  0  0  0  0  0
   -5.1599  -44.9490    6.4967 C   0  0  0  0  0  0  0  0  0  0  0  0
   -3.8904  -44.9919    5.8885 C   0  0  0  0  0  0  0  0  0  0  0  0
    1.2567  -50.7778    6.6179 N   0  0  0  0  0  0  0  0  0  0  0  0
   -6.6672  -45.0309    8.5319 C   0  0  0  0  0  0  0  0  0  0  0  0
   -7.4786  -45.9218    7.9588 F   0  0  0  0  0  0  0  0  0  0  0  0
   -6.6158  -45.2723    9.8435 F   0  0  0  0  0  0  0  0  0  0  0  0
   -7.1584  -43.8055    8.3407 F   0  0  0  0  0  0  0  0  0  0  0  0
    4.4790  -48.0206    7.0712 H   0  0  0  0  0  0  0  0  0  0  0  0
   -0.6663  -52.9358    6.5634 H   0  0  0  0  0  0  0  0  0  0  0  0
   -3.0710  -52.5129    6.0001 H   0  0  0  0  0  0  0  0  0  0  0  0
   -3.8135  -50.2164    5.4137 H   0  0  0  0  0  0  0  0  0  0  0  0
   -2.2041  -48.3377    5.4030 H   0  0  0  0  0  0  0  0  0  0  0  0
   -0.2589  -49.7194    4.9488 H   0  0  0  0  0  0  0  0  0  0  0  0
    1.6827  -46.8975    5.5680 H   0  0  0  0  0  0  0  0  0  0  0  0
   -0.0303  -46.9781    5.0333 H   0  0  0  0  0  0  0  0  0  0  0  0
   -0.5361  -46.9716    7.6327 H   0  0  0  0  0  0  0  0  0  0  0  0
    1.1151  -46.2742    7.7510 H   0  0  0  0  0  0  0  0  0  0  0  0
   -0.5242  -44.4580    7.6525 H   0  0  0  0  0  0  0  0  0  0  0  0
    0.4217  -44.4796    6.1256 H   0  0  0  0  0  0  0  0  0  0  0  0
   -1.9874  -45.5727    8.6594 H   0  0  0  0  0  0  0  0  0  0  0  0
   -4.2275  -45.5265    9.7267 H   0  0  0  0  0  0  0  0  0  0  0  0
   -6.0391  -44.7858    5.8911 H   0  0  0  0  0  0  0  0  0  0  0  0
   -3.8064  -44.8711    4.8186 H   0  0  0  0  0  0  0  0  0  0  0  0
  1  2  2  0  0  0  0
  2  3  1  0  0  0  0
  2  4  1  0  0  0  0
  4 11  2  0  0  0  0
  4 22  1  0  0  0  0
  5  6  1  0  0  0  0
  5 10  1  0  0  0  0
  5 22  2  0  0  0  0
  6  7  2  0  0  0  0
  7  8  1  0  0  0  0
  8  9  2  0  0  0  0
  9 10  1  0  0  0  0
 10 11  1  0  0  0  0
 11 12  1  0  0  0  0
 12 13  1  0  0  0  0
 13 14  1  0  0  0  0
 14 15  1  0  0  0  0
 15 16  1  0  0  0  0
 16 17  2  0  0  0  0
 16 21  1  0  0  0  0
 17 18  1  0  0  0  0
 18 19  2  0  0  0  0
 19 20  1  0  0  0  0
 19 23  1  0  0  0  0
 20 21  2  0  0  0  0
 23 24  1  0  0  0  0
 23 25  1  0  0  0  0
 23 26  1  0  0  0  0
  3 27  1  0  0  0  0
  6 28  1  0  0  0  0
  7 29  1  0  0  0  0
  8 30  1  0  0  0  0
  9 31  1  0  0  0  0
 10 32  1  0  0  0  0
 12 33  1  0  0  0  0
 12 34  1  0  0  0  0
 13 35  1  0  0  0  0
 13 36  1  0  0  0  0
 14 37  1  0  0  0  0
 14 38  1  0  0  0  0
 17 39  1  0  0  0  0
 18 40  1  0  0  0  0
 20 41  1  0  0  0  0
 21 42  1  0  0  0  0
M  END
> <r_user_dG.exp>
-6.86919156414505

$$$$
34
  -OEChem-05162309453D
 Structure written by MMmdl.
 42 44  0     1  0  0  0  0  0999 V2000
    3.8542  -50.1657    7.1652 O   0  0  0  0  0  0  0  0  0  0  0  0
    3.1289  -49.1923    6.8519 C   0  0  0  0  0  0  0  0  0  0  0  0
    3.5613  -48.0246    6.8255 O   0  0  0  0  0  0  0  0  0  0  0  0
    1.7066  -49.4720    6.5208 C   0  0  0  0  0  0  0  0  0  0  0  0
   -0.0964  -50.8628    6.3290 C   0  0  3  0  0  0  0  0  0  0  0  0
   -1.0022  -51.9381    6.3224 C   0  0  0  0  0  0  0  0  0  0  0  0
   -2.3608  -51.6992    5.9962 C   0  0  0  0  0  0  0  0  0  0  0  0
   -2.7795  -50.3974    5.6675 C   0  0  0  0  0  0  0  0  0  0  0  0
   -1.8647  -49.3287    5.6661 C   0  0  0  0  0  0  0  0  0  0  0  0
   -0.4959  -49.5353    6.0071 C   0  0  0  0  0  0  0  0  0  0  0  0
    0.6533  -48.6750    6.1162 C   0  0  0  0  0  0  0  0  0  0  0  0
    0.6653  -47.2011    5.8557 C   0  0  0  0  0  0  0  0  0  0  0  0
    0.2404  -46.4057    7.0971 C   0  0  0  0  0  0  0  0  0  0  0  0
   -0.3171  -45.0238    6.7322 C   0  0  0  0  0  0  0  0  0  0  0  0
   -1.5243  -45.1759    5.9865 O   0  0  0  0  0  0  0  0  0  0  0  0
   -2.7274  -45.1910    6.6616 C   0  0  0  0  0  0  0  0  0  0  0  0
   -2.8647  -45.3931    8.0557 C   0  0  0  0  0  0  0  0  0  0  0  0
   -4.1364  -45.3621    8.6632 C   0  0  0  0  0  0  0  0  0  0  0  0
   -5.2914  -45.1174    7.8895 C   0  0  0  0  0  0  0  0  0  0  0  0
   -5.1599  -44.9490    6.4967 C   0  0  0  0  0  0  0  0  0  0  0  0
   -3.8904  -44.9919    5.8885 C   0  0  0  0  0  0  0  0  0  0  0  0
    1.2567  -50.7778    6.6179 N   0  0  0  0  0  0  0  0  0  0  0  0
   -6.6672  -45.0309    8.5319 C   0  0  0  0  0  0  0  0  0  0  0  0
   -7.4786  -45.9218    7.9588 F   0  0  0  0  0  0  0  0  0  0  0  0
   -6.6158  -45.2723    9.8435 F   0  0  0  0  0  0  0  0  0  0  0  0
   -7.1584  -43.8055    8.3407 F   0  0  0  0  0  0  0  0  0  0  0  0
    4.4790  -48.0206    7.0712 H   0  0  0  0  0  0  0  0  0  0  0  0
    0.1388  -51.0512    5.2711 H   0  0  0  0  0  0  0  0  0  0  0  0
   -0.6663  -52.9358    6.5634 H   0  0  0  0  0  0  0  0  0  0  0  0
   -3.0710  -52.5129    6.0001 H   0  0  0  0  0  0  0  0  0  0  0  0
   -3.8135  -50.2164    5.4137 H   0  0  0  0  0  0  0  0  0  0  0  0
   -2.2041  -48.3377    5.4030 H   0  0  0  0  0  0  0  0  0  0  0  0
    1.6827  -46.8975    5.5680 H   0  0  0  0  0  0  0  0  0  0  0  0
   -0.0303  -46.9781    5.0333 H   0  0  0  0  0  0  0  0  0  0  0  0
   -0.5361  -46.9716    7.6327 H   0  0  0  0  0  0  0  0  0  0  0  0
    1.1151  -46.2742    7.7510 H   0  0  0  0  0  0  0  0  0  0  0  0
   -0.5242  -44.4580    7.6525 H   0  0  0  0  0  0  0  0  0  0  0  0
    0.4217  -44.4796    6.1256 H   0  0  0  0  0  0  0  0  0  0  0  0
   -1.9874  -45.5727    8.6594 H   0  0  0  0  0  0  0  0  0  0  0  0
   -4.2275  -45.5265    9.7267 H   0  0  0  0  0  0  0  0  0  0  0  0
   -6.0391  -44.7858    5.8911 H   0  0  0  0  0  0  0  0  0  0  0  0
   -3.8064  -44.8711    4.8186 H   0  0  0  0  0  0  0  0  0  0  0  0
  1  2  2  0  0  0  0
  2  3  1  0  0  0  0
  2  4  1  0  0  0  0
  4 11  1  0  0  0  0
  4 22  2  0  0  0  0
  5  6  1  0  0  0  0
  5 10  1  0  0  0  0
  5 22  1  0  0  0  0
  6  7  2  0  0  0  0
  7  8  1  0  0  0  0
  8  9  2  0  0  0  0
  9 10  1  0  0  0  0
 10 11  2  0  0  0  0
 11 12  1  0  0  0  0
 12 13  1  0  0  0  0
 13 14  1  0  0  0  0
 14 15  1  0  0  0  0
 15 16  1  0  0  0  0
 16 17  2  0  0  0  0
 16 21  1  0  0  0  0
 17 18  1  0  0  0  0
 18 19  2  0  0  0  0
 19 20  1  0  0  0  0
 19 23  1  0  0  0  0
 20 21  2  0  0  0  0
 23 24  1  0  0  0  0
 23 25  1  0  0  0  0
 23 26  1  0  0  0  0
  3 27  1  0  0  0  0
  5 28  1  0  0  0  0
  6 29  1  0  0  0  0
  7 30  1  0  0  0  0
  8 31  1  0  0  0  0
  9 32  1  0  0  0  0
 12 33  1  0  0  0  0
 12 34  1  0  0  0  0
 13 35  1  0  0  0  0
 13 36  1  0  0  0  0
 14 37  1  0  0  0  0
 14 38  1  0  0  0  0
 17 39  1  0  0  0  0
 18 40  1  0  0  0  0
 20 41  1  0  0  0  0
 21 42  1  0  0  0  0
M  END
> <r_user_dG.exp>
-6.86919156414505

$$$$
34
  -OEChem-05162309453D
 Structure written by MMmdl.
 42 44  0     0  0  0  0  0  0999 V2000
    3.8542  -50.1657    7.1652 O   0  0  0  0  0  0  0  0  0  0  0  0
    3.1289  -49.1923    6.8519 C   0  0  0  0  0  0  0  0  0  0  0  0
    3.5613  -48.0246    6.8255 O   0  0  0  0  0  0  0  0  0  0  0  0
    1.7066  -49.4720    6.5208 C   0  0  0  0  0  0  0  0  0  0  0  0
   -0.0964  -50.8628    6.3290 C   0  0  0  0  0  0  0  0  0  0  0  0
   -1.0022  -51.9381    6.3224 C   0  0  0  0  0  0  0  0  0  0  0  0
   -2.3608  -51.6992    5.9962 C   0  0  0  0  0  0  0  0  0  0  0  0
   -2.7795  -50.3974    5.6675 C   0  0  0  0  0  0  0  0  0  0  0  0
   -1.8647  -49.3287    5.6661 C   0  0  0  0  0  0  0  0  0  0  0  0
   -0.4959  -49.5353    6.0071 C   0  0  0  0  0  0  0  0  0  0  0  0
    0.6533  -48.6750    6.1162 C   0  0  0  0  0  0  0  0  0  0  0  0
    0.6653  -47.2011    5.8557 C   0  0  0  0  0  0  0  0  0  0  0  0
    0.2404  -46.4057    7.0971 C   0  0  0  0  0  0  0  0  0  0  0  0
   -0.3171  -45.0238    6.7322 C   0  0  0  0  0  0  0  0  0  0  0  0
   -1.5243  -45.1759    5.9865 O   0  0  0  0  0  0  0  0  0  0  0  0
   -2.7274  -45.1910    6.6616 C   0  0  0  0  0  0  0  0  0  0  0  0
   -2.8647  -45.3931    8.0557 C   0  0  0  0  0  0  0  0  0  0  0  0
   -4.1364  -45.3621    8.6632 C   0  0  0  0  0  0  0  0  0  0  0  0
   -5.2914  -45.1174    7.8895 C   0  0  0  0  0  0  0  0  0  0  0  0
   -5.1599  -44.9490    6.4967 C   0  0  0  0  0  0  0  0  0  0  0  0
   -3.8904  -44.9919    5.8885 C   0  0  0  0  0  0  0  0  0  0  0  0
    1.2567  -50.7778    6.6179 N   0  0  0  0  0  0  0  0  0  0  0  0
   -6.6672  -45.0309    8.5319 C   0  0  0  0  0  0  0  0  0  0  0  0
   -7.4786  -45.9218    7.9588 F   0  0  0  0  0  0  0  0  0  0  0  0
   -6.6158  -45.2723    9.8435 F   0  0  0  0  0  0  0  0  0  0  0  0
   -7.1584  -43.8055    8.3407 F   0  0  0  0  0  0  0  0  0  0  0  0
    4.4790  -48.0206    7.0712 H   0  0  0  0  0  0  0  0  0  0  0  0
   -0.6663  -52.9358    6.5634 H   0  0  0  0  0  0  0  0  0  0  0  0
   -3.0710  -52.5129    6.0001 H   0  0  0  0  0  0  0  0  0  0  0  0
   -3.2032  -50.4500    4.6537 H   0  0  0  0  0  0  0  0  0  0  0  0
   -3.5720  -50.1320    6.3827 H   0  0  0  0  0  0  0  0  0  0  0  0
   -2.2041  -48.3377    5.4030 H   0  0  0  0  0  0  0  0  0  0  0  0
    1.6827  -46.8975    5.5680 H   0  0  0  0  0  0  0  0  0  0  0  0
   -0.0303  -46.9781    5.0333 H   0  0  0  0  0  0  0  0  0  0  0  0
   -0.5361  -46.9716    7.6327 H   0  0  0  0  0  0  0  0  0  0  0  0
    1.1151  -46.2742    7.7510 H   0  0  0  0  0  0  0  0  0  0  0  0
   -0.5242  -44.4580    7.6525 H   0  0  0  0  0  0  0  0  0  0  0  0
    0.4217  -44.4796    6.1256 H   0  0  0  0  0  0  0  0  0  0  0  0
   -1.9874  -45.5727    8.6594 H   0  0  0  0  0  0  0  0  0  0  0  0
   -4.2275  -45.5265    9.7267 H   0  0  0  0  0  0  0  0  0  0  0  0
   -6.0391  -44.7858    5.8911 H   0  0  0  0  0  0  0  0  0  0  0  0
   -3.8064  -44.8711    4.8186 H   0  0  0  0  0  0  0  0  0  0  0  0
  1  2  2  0  0  0  0
  2  3  1  0  0  0  0
  2  4  1  0  0  0  0
  4 11  2  0  0  0  0
  4 22  1  0  0  0  0
  5  6  1  0  0  0  0
  5 10  1  0  0  0  0
  5 22  2  0  0  0  0
  6  7  2  0  0  0  0
  7  8  1  0  0  0  0
  8  9  1  0  0  0  0
  9 10  2  0  0  0  0
 10 11  1  0  0  0  0
 11 12  1  0  0  0  0
 12 13  1  0  0  0  0
 13 14  1  0  0  0  0
 14 15  1  0  0  0  0
 15 16  1  0  0  0  0
 16 17  2  0  0  0  0
 16 21  1  0  0  0  0
 17 18  1  0  0  0  0
 18 19  2  0  0  0  0
 19 20  1  0  0  0  0
 19 23  1  0  0  0  0
 20 21  2  0  0  0  0
 23 24  1  0  0  0  0
 23 25  1  0  0  0  0
 23 26  1  0  0  0  0
  3 27  1  0  0  0  0
  6 28  1  0  0  0  0
  7 29  1  0  0  0  0
  8 30  1  0  0  0  0
  8 31  1  0  0  0  0
  9 32  1  0  0  0  0
 12 33  1  0  0  0  0
 12 34  1  0  0  0  0
 13 35  1  0  0  0  0
 13 36  1  0  0  0  0
 14 37  1  0  0  0  0
 14 38  1  0  0  0  0
 17 39  1  0  0  0  0
 18 40  1  0  0  0  0
 20 41  1  0  0  0  0
 21 42  1  0  0  0  0
M  END
> <r_user_dG.exp>
-6.86919156414505

$$$$
34
  -OEChem-05162309453D
 Structure written by MMmdl.
 42 44  0     0  0  0  0  0  0999 V2000
    3.8542  -50.1657    7.1652 O   0  0  0  0  0  0  0  0  0  0  0  0
    3.1289  -49.1923    6.8519 C   0  0  0  0  0  0  0  0  0  0  0  0
    3.5613  -48.0246    6.8255 O   0  0  0  0  0  0  0  0  0  0  0  0
    1.7066  -49.4720    6.5208 C   0  0  0  0  0  0  0  0  0  0  0  0
   -0.0964  -50.8628    6.3290 C   0  0  0  0  0  0  0  0  0  0  0  0
   -1.0022  -51.9381    6.3224 C   0  0  0  0  0  0  0  0  0  0  0  0
   -2.3608  -51.6992    5.9962 C   0  0  0  0  0  0  0  0  0  0  0  0
   -2.7795  -50.3974    5.6675 C   0  0  0  0  0  0  0  0  0  0  0  0
   -1.8647  -49.3287    5.6661 C   0  0  0  0  0  0  0  0  0  0  0  0
   -0.4959  -49.5353    6.0071 C   0  0  0  0  0  0  0  0  0  0  0  0
    0.6533  -48.6750    6.1162 C   0  0  0  0  0  0  0  0  0  0  0  0
    0.6653  -47.2011    5.8557 C   0  0  0  0  0  0  0  0  0  0  0  0
    0.2404  -46.4057    7.0971 C   0  0  0  0  0  0  0  0  0  0  0  0
   -0.3171  -45.0238    6.7322 C   0  0  0  0  0  0  0  0  0  0  0  0
   -1.5243  -45.1759    5.9865 O   0  0  0  0  0  0  0  0  0  0  0  0
   -2.7274  -45.1910    6.6616 C   0  0  0  0  0  0  0  0  0  0  0  0
   -2.8647  -45.3931    8.0557 C   0  0  0  0  0  0  0  0  0  0  0  0
   -4.1364  -45.3621    8.6632 C   0  0  0  0  0  0  0  0  0  0  0  0
   -5.2914  -45.1174    7.8895 C   0  0  0  0  0  0  0  0  0  0  0  0
   -5.1599  -44.9490    6.4967 C   0  0  0  0  0  0  0  0  0  0  0  0
   -3.8904  -44.9919    5.8885 C   0  0  0  0  0  0  0  0  0  0  0  0
    1.2567  -50.7778    6.6179 N   0  0  0  0  0  0  0  0  0  0  0  0
   -6.6672  -45.0309    8.5319 C   0  0  0  0  0  0  0  0  0  0  0  0
   -7.4786  -45.9218    7.9588 F   0  0  0  0  0  0  0  0  0  0  0  0
   -6.6158  -45.2723    9.8435 F   0  0  0  0  0  0  0  0  0  0  0  0
   -7.1584  -43.8055    8.3407 F   0  0  0  0  0  0  0  0  0  0  0  0
    4.4790  -48.0206    7.0712 H   0  0  0  0  0  0  0  0  0  0  0  0
   -0.6663  -52.9358    6.5634 H   0  0  0  0  0  0  0  0  0  0  0  0
   -2.5989  -52.3384    5.1332 H   0  0  0  0  0  0  0  0  0  0  0  0
   -2.9579  -52.0169    6.8637 H   0  0  0  0  0  0  0  0  0  0  0  0
   -3.8135  -50.2164    5.4137 H   0  0  0  0  0  0  0  0  0  0  0  0
   -2.2041  -48.3377    5.4030 H   0  0  0  0  0  0  0  0  0  0  0  0
    1.6827  -46.8975    5.5680 H   0  0  0  0  0  0  0  0  0  0  0  0
   -0.0303  -46.9781    5.0333 H   0  0  0  0  0  0  0  0  0  0  0  0
   -0.5361  -46.9716    7.6327 H   0  0  0  0  0  0  0  0  0  0  0  0
    1.1151  -46.2742    7.7510 H   0  0  0  0  0  0  0  0  0  0  0  0
   -0.5242  -44.4580    7.6525 H   0  0  0  0  0  0  0  0  0  0  0  0
    0.4217  -44.4796    6.1256 H   0  0  0  0  0  0  0  0  0  0  0  0
   -1.9874  -45.5727    8.6594 H   0  0  0  0  0  0  0  0  0  0  0  0
   -4.2275  -45.5265    9.7267 H   0  0  0  0  0  0  0  0  0  0  0  0
   -6.0391  -44.7858    5.8911 H   0  0  0  0  0  0  0  0  0  0  0  0
   -3.8064  -44.8711    4.8186 H   0  0  0  0  0  0  0  0  0  0  0  0
  1  2  2  0  0  0  0
  2  3  1  0  0  0  0
  2  4  1  0  0  0  0
  4 11  1  0  0  0  0
  4 22  2  0  0  0  0
  5  6  2  0  0  0  0
  5 10  1  0  0  0  0
  5 22  1  0  0  0  0
  6  7  1  0  0  0  0
  7  8  1  0  0  0  0
  8  9  2  0  0  0  0
  9 10  1  0  0  0  0
 10 11  2  0  0  0  0
 11 12  1  0  0  0  0
 12 13  1  0  0  0  0
 13 14  1  0  0  0  0
 14 15  1  0  0  0  0
 15 16  1  0  0  0  0
 16 17  2  0  0  0  0
 16 21  1  0  0  0  0
 17 18  1  0  0  0  0
 18 19  2  0  0  0  0
 19 20  1  0  0  0  0
 19 23  1  0  0  0  0
 20 21  2  0  0  0  0
 23 24  1  0  0  0  0
 23 25  1  0  0  0  0
 23 26  1  0  0  0  0
  3 27  1  0  0  0  0
  6 28  1  0  0  0  0
  7 29  1  0  0  0  0
  7 30  1  0  0  0  0
  8 31  1  0  0  0  0
  9 32  1  0  0  0  0
 12 33  1  0  0  0  0
 12 34  1  0  0  0  0
 13 35  1  0  0  0  0
 13 36  1  0  0  0  0
 14 37  1  0  0  0  0
 14 38  1  0  0  0  0
 17 39  1  0  0  0  0
 18 40  1  0  0  0  0
 20 41  1  0  0  0  0
 21 42  1  0  0  0  0
M  END
> <r_user_dG.exp>
-6.86919156414505

$$$$
34
  -OEChem-05162309453D
 Structure written by MMmdl.
 42 44  0     0  0  0  0  0  0999 V2000
    3.8542  -50.1657    7.1652 O   0  0  0  0  0  0  0  0  0  0  0  0
    3.1289  -49.1923    6.8519 C   0  0  0  0  0  0  0  0  0  0  0  0
    3.5613  -48.0246    6.8255 O   0  0  0  0  0  0  0  0  0  0  0  0
    1.7066  -49.4720    6.5208 C   0  0  0  0  0  0  0  0  0  0  0  0
   -0.0964  -50.8628    6.3290 C   0  0  0  0  0  0  0  0  0  0  0  0
   -1.0022  -51.9381    6.3224 C   0  0  0  0  0  0  0  0  0  0  0  0
   -2.3608  -51.6992    5.9962 C   0  0  0  0  0  0  0  0  0  0  0  0
   -2.7795  -50.3974    5.6675 C   0  0  0  0  0  0  0  0  0  0  0  0
   -1.8647  -49.3287    5.6661 C   0  0  0  0  0  0  0  0  0  0  0  0
   -0.4959  -49.5353    6.0071 C   0  0  0  0  0  0  0  0  0  0  0  0
    0.6533  -48.6750    6.1162 C   0  0  0  0  0  0  0  0  0  0  0  0
    0.6653  -47.2011    5.8557 C   0  0  0  0  0  0  0  0  0  0  0  0
    0.2404  -46.4057    7.0971 C   0  0  0  0  0  0  0  0  0  0  0  0
   -0.3171  -45.0238    6.7322 C   0  0  0  0  0  0  0  0  0  0  0  0
   -1.5243  -45.1759    5.9865 O   0  0  0  0  0  0  0  0  0  0  0  0
   -2.7274  -45.1910    6.6616 C   0  0  0  0  0  0  0  0  0  0  0  0
   -2.8647  -45.3931    8.0557 C   0  0  0  0  0  0  0  0  0  0  0  0
   -4.1364  -45.3621    8.6632 C   0  0  0  0  0  0  0  0  0  0  0  0
   -5.2914  -45.1174    7.8895 C   0  0  0  0  0  0  0  0  0  0  0  0
   -5.1599  -44.9490    6.4967 C   0  0  0  0  0  0  0  0  0  0  0  0
   -3.8904  -44.9919    5.8885 C   0  0  0  0  0  0  0  0  0  0  0  0
    1.2567  -50.7778    6.6179 N   0  0  0  0  0  0  0  0  0  0  0  0
   -6.6672  -45.0309    8.5319 C   0  0  0  0  0  0  0  0  0  0  0  0
   -7.4786  -45.9218    7.9588 F   0  0  0  0  0  0  0  0  0  0  0  0
   -6.6158  -45.2723    9.8435 F   0  0  0  0  0  0  0  0  0  0  0  0
   -7.1584  -43.8055    8.3407 F   0  0  0  0  0  0  0  0  0  0  0  0
    4.4790  -48.0206    7.0712 H   0  0  0  0  0  0  0  0  0  0  0  0
   -0.6226  -52.6729    5.5972 H   0  0  0  0  0  0  0  0  0  0  0  0
   -0.9868  -52.3767    7.3310 H   0  0  0  0  0  0  0  0  0  0  0  0
   -3.0710  -52.5129    6.0001 H   0  0  0  0  0  0  0  0  0  0  0  0
   -3.8135  -50.2164    5.4137 H   0  0  0  0  0  0  0  0  0  0  0  0
   -2.2041  -48.3377    5.4030 H   0  0  0  0  0  0  0  0  0  0  0  0
    1.6827  -46.8975    5.5680 H   0  0  0  0  0  0  0  0  0  0  0  0
   -0.0303  -46.9781    5.0333 H   0  0  0  0  0  0  0  0  0  0  0  0
   -0.5361  -46.9716    7.6327 H   0  0  0  0  0  0  0  0  0  0  0  0
    1.1151  -46.2742    7.7510 H   0  0  0  0  0  0  0  0  0  0  0  0
   -0.5242  -44.4580    7.6525 H   0  0  0  0  0  0  0  0  0  0  0  0
    0.4217  -44.4796    6.1256 H   0  0  0  0  0  0  0  0  0  0  0  0
   -1.9874  -45.5727    8.6594 H   0  0  0  0  0  0  0  0  0  0  0  0
   -4.2275  -45.5265    9.7267 H   0  0  0  0  0  0  0  0  0  0  0  0
   -6.0391  -44.7858    5.8911 H   0  0  0  0  0  0  0  0  0  0  0  0
   -3.8064  -44.8711    4.8186 H   0  0  0  0  0  0  0  0  0  0  0  0
  1  2  2  0  0  0  0
  2  3  1  0  0  0  0
  2  4  1  0  0  0  0
  4 11  2  0  0  0  0
  4 22  1  0  0  0  0
  5  6  1  0  0  0  0
  5 10  1  0  0  0  0
  5 22  2  0  0  0  0
  6  7  1  0  0  0  0
  7  8  2  0  0  0  0
  8  9  1  0  0  0  0
  9 10  2  0  0  0  0
 10 11  1  0  0  0  0
 11 12  1  0  0  0  0
 12 13  1  0  0  0  0
 13 14  1  0  0  0  0
 14 15  1  0  0  0  0
 15 16  1  0  0  0  0
 16 17  2  0  0  0  0
 16 21  1  0  0  0  0
 17 18  1  0  0  0  0
 18 19  2  0  0  0  0
 19 20  1  0  0  0  0
 19 23  1  0  0  0  0
 20 21  2  0  0  0  0
 23 24  1  0  0  0  0
 23 25  1  0  0  0  0
 23 26  1  0  0  0  0
  3 27  1  0  0  0  0
  6 28  1  0  0  0  0
  6 29  1  0  0  0  0
  7 30  1  0  0  0  0
  8 31  1  0  0  0  0
  9 32  1  0  0  0  0
 12 33  1  0  0  0  0
 12 34  1  0  0  0  0
 13 35  1  0  0  0  0
 13 36  1  0  0  0  0
 14 37  1  0  0  0  0
 14 38  1  0  0  0  0
 17 39  1  0  0  0  0
 18 40  1  0  0  0  0
 20 41  1  0  0  0  0
 21 42  1  0  0  0  0
M  END
> <r_user_dG.exp>
-6.86919156414505

$$$$
34
  -OEChem-05162309453D
 Structure written by MMmdl.
 42 44  0     0  0  0  0  0  0999 V2000
    3.8542  -50.1657    7.1652 O   0  0  0  0  0  0  0  0  0  0  0  0
    3.1289  -49.1923    6.8519 C   0  0  0  0  0  0  0  0  0  0  0  0
    3.5613  -48.0246    6.8255 O   0  0  0  0  0  0  0  0  0  0  0  0
    1.7066  -49.4720    6.5208 C   0  0  0  0  0  0  0  0  0  0  0  0
   -0.0964  -50.8628    6.3290 C   0  0  0  0  0  0  0  0  0  0  0  0
   -1.0022  -51.9381    6.3224 C   0  0  0  0  0  0  0  0  0  0  0  0
   -2.3608  -51.6992    5.9962 C   0  0  0  0  0  0  0  0  0  0  0  0
   -2.7795  -50.3974    5.6675 C   0  0  0  0  0  0  0  0  0  0  0  0
   -1.8647  -49.3287    5.6661 C   0  0  0  0  0  0  0  0  0  0  0  0
   -0.4959  -49.5353    6.0071 C   0  0  0  0  0  0  0  0  0  0  0  0
    0.6533  -48.6750    6.1162 C   0  0  0  0  0  0  0  0  0  0  0  0
    0.6653  -47.2011    5.8557 C   0  0  0  0  0  0  0  0  0  0  0  0
    0.2404  -46.4057    7.0971 C   0  0  0  0  0  0  0  0  0  0  0  0
   -0.3171  -45.0238    6.7322 C   0  0  0  0  0  0  0  0  0  0  0  0
   -1.5243  -45.1759    5.9865 O   0  0  0  0  0  0  0  0  0  0  0  0
   -2.7274  -45.1910    6.6616 C   0  0  0  0  0  0  0  0  0  0  0  0
   -2.8647  -45.3931    8.0557 C   0  0  0  0  0  0  0  0  0  0  0  0
   -4.1364  -45.3621    8.6632 C   0  0  0  0  0  0  0  0  0  0  0  0
   -5.2914  -45.1174    7.8895 C   0  0  0  0  0  0  0  0  0  0  0  0
   -5.1599  -44.9490    6.4967 C   0  0  0  0  0  0  0  0  0  0  0  0
   -3.8904  -44.9919    5.8885 C   0  0  0  0  0  0  0  0  0  0  0  0
    1.2567  -50.7778    6.6179 N   0  0  0  0  0  0  0  0  0  0  0  0
   -6.6672  -45.0309    8.5319 C   0  0  0  0  0  0  0  0  0  0  0  0
   -7.4786  -45.9218    7.9588 F   0  0  0  0  0  0  0  0  0  0  0  0
   -6.6158  -45.2723    9.8435 F   0  0  0  0  0  0  0  0  0  0  0  0
   -7.1584  -43.8055    8.3407 F   0  0  0  0  0  0  0  0  0  0  0  0
    4.4790  -48.0206    7.0712 H   0  0  0  0  0  0  0  0  0  0  0  0
   -0.6663  -52.9358    6.5634 H   0  0  0  0  0  0  0  0  0  0  0  0
   -3.0710  -52.5129    6.0001 H   0  0  0  0  0  0  0  0  0  0  0  0
   -3.8135  -50.2164    5.4137 H   0  0  0  0  0  0  0  0  0  0  0  0
   -1.8742  -48.9098    4.6490 H   0  0  0  0  0  0  0  0  0  0  0  0
   -2.2544  -48.5821    6.3738 H   0  0  0  0  0  0  0  0  0  0  0  0
    1.6827  -46.8975    5.5680 H   0  0  0  0  0  0  0  0  0  0  0  0
   -0.0303  -46.9781    5.0333 H   0  0  0  0  0  0  0  0  0  0  0  0
   -0.5361  -46.9716    7.6327 H   0  0  0  0  0  0  0  0  0  0  0  0
    1.1151  -46.2742    7.7510 H   0  0  0  0  0  0  0  0  0  0  0  0
   -0.5242  -44.4580    7.6525 H   0  0  0  0  0  0  0  0  0  0  0  0
    0.4217  -44.4796    6.1256 H   0  0  0  0  0  0  0  0  0  0  0  0
   -1.9874  -45.5727    8.6594 H   0  0  0  0  0  0  0  0  0  0  0  0
   -4.2275  -45.5265    9.7267 H   0  0  0  0  0  0  0  0  0  0  0  0
   -6.0391  -44.7858    5.8911 H   0  0  0  0  0  0  0  0  0  0  0  0
   -3.8064  -44.8711    4.8186 H   0  0  0  0  0  0  0  0  0  0  0  0
  1  2  2  0  0  0  0
  2  3  1  0  0  0  0
  2  4  1  0  0  0  0
  4 11  1  0  0  0  0
  4 22  2  0  0  0  0
  5  6  2  0  0  0  0
  5 10  1  0  0  0  0
  5 22  1  0  0  0  0
  6  7  1  0  0  0  0
  7  8  2  0  0  0  0
  8  9  1  0  0  0  0
  9 10  1  0  0  0  0
 10 11  2  0  0  0  0
 11 12  1  0  0  0  0
 12 13  1  0  0  0  0
 13 14  1  0  0  0  0
 14 15  1  0  0  0  0
 15 16  1  0  0  0  0
 16 17  2  0  0  0  0
 16 21  1  0  0  0  0
 17 18  1  0  0  0  0
 18 19  2  0  0  0  0
 19 20  1  0  0  0  0
 19 23  1  0  0  0  0
 20 21  2  0  0  0  0
 23 24  1  0  0  0  0
 23 25  1  0  0  0  0
 23 26  1  0  0  0  0
  3 27  1  0  0  0  0
  6 28  1  0  0  0  0
  7 29  1  0  0  0  0
  8 30  1  0  0  0  0
  9 31  1  0  0  0  0
  9 32  1  0  0  0  0
 12 33  1  0  0  0  0
 12 34  1  0  0  0  0
 13 35  1  0  0  0  0
 13 36  1  0  0  0  0
 14 37  1  0  0  0  0
 14 38  1  0  0  0  0
 17 39  1  0  0  0  0
 18 40  1  0  0  0  0
 20 41  1  0  0  0  0
 21 42  1  0  0  0  0
M  END
> <r_user_dG.exp>
-6.86919156414505

$$$$
34
  -OEChem-05162309453D
 Structure written by MMmdl.
 42 44  0     0  0  0  0  0  0999 V2000
    3.8542  -50.1657    7.1652 O   0  0  0  0  0  0  0  0  0  0  0  0
    3.1289  -49.1923    6.8519 C   0  0  0  0  0  0  0  0  0  0  0  0
    3.5613  -48.0246    6.8255 O   0  0  0  0  0  0  0  0  0  0  0  0
    1.7066  -49.4720    6.5208 C   0  0  0  0  0  0  0  0  0  0  0  0
   -0.0964  -50.8628    6.3290 C   0  0  0  0  0  0  0  0  0  0  0  0
   -1.0022  -51.9381    6.3224 C   0  0  0  0  0  0  0  0  0  0  0  0
   -2.3608  -51.6992    5.9962 C   0  0  0  0  0  0  0  0  0  0  0  0
   -2.7795  -50.3974    5.6675 C   0  0  0  0  0  0  0  0  0  0  0  0
   -1.8647  -49.3287    5.6661 C   0  0  0  0  0  0  0  0  0  0  0  0
   -0.4959  -49.5353    6.0071 C   0  0  0  0  0  0  0  0  0  0  0  0
    0.6533  -48.6750    6.1162 C   0  0  0  0  0  0  0  0  0  0  0  0
    0.6653  -47.2011    5.8557 C   0  0  0  0  0  0  0  0  0  0  0  0
    0.2404  -46.4057    7.0971 C   0  0  0  0  0  0  0  0  0  0  0  0
   -0.3171  -45.0238    6.7322 C   0  0  0  0  0  0  0  0  0  0  0  0
   -1.5243  -45.1759    5.9865 O   0  0  0  0  0  0  0  0  0  0  0  0
   -2.7274  -45.1910    6.6616 C   0  0  0  0  0  0  0  0  0  0  0  0
   -2.8647  -45.3931    8.0557 C   0  0  0  0  0  0  0  0  0  0  0  0
   -4.1364  -45.3621    8.6632 C   0  0  0  0  0  0  0  0  0  0  0  0
   -5.2914  -45.1174    7.8895 C   0  0  0  0  0  0  0  0  0  0  0  0
   -5.1599  -44.9490    6.4967 C   0  0  0  0  0  0  0  0  0  0  0  0
   -3.8904  -44.9919    5.8885 C   0  0  0  0  0  0  0  0  0  0  0  0
    1.2567  -50.7778    6.6179 N   0  0  0  0  0  0  0  0  0  0  0  0
   -6.6672  -45.0309    8.5319 C   0  0  0  0  0  0  0  0  0  0  0  0
   -7.4786  -45.9218    7.9588 F   0  0  0  0  0  0  0  0  0  0  0  0
   -6.6158  -45.2723    9.8435 F   0  0  0  0  0  0  0  0  0  0  0  0
   -7.1584  -43.8055    8.3407 F   0  0  0  0  0  0  0  0  0  0  0  0
    3.3445  -50.9665    7.1261 H   0  0  0  0  0  0  0  0  0  0  0  0
    2.8638  -47.4339    6.5663 H   0  0  0  0  0  0  0  0  0  0  0  0
   -0.6663  -52.9358    6.5634 H   0  0  0  0  0  0  0  0  0  0  0  0
   -3.0710  -52.5129    6.0001 H   0  0  0  0  0  0  0  0  0  0  0  0
   -3.8135  -50.2164    5.4137 H   0  0  0  0  0  0  0  0  0  0  0  0
   -2.2041  -48.3377    5.4030 H   0  0  0  0  0  0  0  0  0  0  0  0
    1.6827  -46.8975    5.5680 H   0  0  0  0  0  0  0  0  0  0  0  0
   -0.0303  -46.9781    5.0333 H   0  0  0  0  0  0  0  0  0  0  0  0
   -0.5361  -46.9716    7.6327 H   0  0  0  0  0  0  0  0  0  0  0  0
    1.1151  -46.2742    7.7510 H   0  0  0  0  0  0  0  0  0  0  0  0
   -0.5242  -44.4580    7.6525 H   0  0  0  0  0  0  0  0  0  0  0  0
    0.4217  -44.4796    6.1256 H   0  0  0  0  0  0  0  0  0  0  0  0
   -1.9874  -45.5727    8.6594 H   0  0  0  0  0  0  0  0  0  0  0  0
   -4.2275  -45.5265    9.7267 H   0  0  0  0  0  0  0  0  0  0  0  0
   -6.0391  -44.7858    5.8911 H   0  0  0  0  0  0  0  0  0  0  0  0
   -3.8064  -44.8711    4.8186 H   0  0  0  0  0  0  0  0  0  0  0  0
  1  2  1  0  0  0  0
  2  3  1  0  0  0  0
  2  4  2  0  0  0  0
  4 11  1  0  0  0  0
  4 22  1  0  0  0  0
  5  6  1  0  0  0  0
  5 10  1  0  0  0  0
  5 22  2  0  0  0  0
  6  7  2  0  0  0  0
  7  8  1  0  0  0  0
  8  9  2  0  0  0  0
  9 10  1  0  0  0  0
 10 11  2  0  0  0  0
 11 12  1  0  0  0  0
 12 13  1  0  0  0  0
 13 14  1  0  0  0  0
 14 15  1  0  0  0  0
 15 16  1  0  0  0  0
 16 17  2  0  0  0  0
 16 21  1  0  0  0  0
 17 18  1  0  0  0  0
 18 19  2  0  0  0  0
 19 20  1  0  0  0  0
 19 23  1  0  0  0  0
 20 21  2  0  0  0  0
 23 24  1  0  0  0  0
 23 25  1  0  0  0  0
 23 26  1  0  0  0  0
  1 27  1  0  0  0  0
  3 28  1  0  0  0  0
  6 29  1  0  0  0  0
  7 30  1  0  0  0  0
  8 31  1  0  0  0  0
  9 32  1  0  0  0  0
 12 33  1  0  0  0  0
 12 34  1  0  0  0  0
 13 35  1  0  0  0  0
 13 36  1  0  0  0  0
 14 37  1  0  0  0  0
 14 38  1  0  0  0  0
 17 39  1  0  0  0  0
 18 40  1  0  0  0  0
 20 41  1  0  0  0  0
 21 42  1  0  0  0  0
M  END
> <r_user_dG.exp>
-6.86919156414505

$$$$
