42
  -OEChem-05162309453D
 Structure written by MMmdl.
 45 48  0     0  0  0  0  0  0999 V2000
    3.6010  -50.1309    7.2173 O   0  0  0  0  0  0  0  0  0  0  0  0
    2.9795  -49.0944    6.8829 C   0  0  0  0  0  0  0  0  0  0  0  0
    3.5582  -47.9830    6.8122 O   0  0  0  0  0  0  0  0  0  0  0  0
    1.5366  -49.2034    6.5537 C   0  0  0  0  0  0  0  0  0  0  0  0
   -0.3472  -50.4577    6.2991 C   0  0  0  0  0  0  0  0  0  0  0  0
   -1.3179  -51.4749    6.2331 C   0  0  0  0  0  0  0  0  0  0  0  0
   -2.6289  -51.1468    5.8278 C   0  0  0  0  0  0  0  0  0  0  0  0
   -2.9455  -49.8148    5.4839 C   0  0  0  0  0  0  0  0  0  0  0  0
   -1.9618  -48.8114    5.5555 C   0  0  0  0  0  0  0  0  0  0  0  0
   -0.6358  -49.1065    5.9640 C   0  0  0  0  0  0  0  0  0  0  0  0
    0.5554  -48.3244    6.1538 C   0  0  0  0  0  0  0  0  0  0  0  0
    0.6833  -46.8447    5.9557 C   0  0  0  0  0  0  0  0  0  0  0  0
    0.6911  -46.0461    7.2731 C   0  0  0  0  0  0  0  0  0  0  0  0
   -0.5530  -46.2446    8.1393 C   0  0  0  0  0  0  0  0  0  0  0  0
   -1.6886  -45.7642    7.4384 O   0  0  0  0  0  0  0  0  0  0  0  0
   -2.9365  -45.9351    8.0039 C   0  0  0  0  0  0  0  0  0  0  0  0
   -5.5641  -46.2439    9.0369 C   0  0  0  0  0  0  0  0  0  0  0  0
   -4.4526  -46.6108    9.8135 C   0  0  0  0  0  0  0  0  0  0  0  0
   -3.1512  -46.4560    9.3053 C   0  0  0  0  0  0  0  0  0  0  0  0
   -5.3751  -45.7201    7.7432 C   0  0  0  0  0  0  0  0  0  0  0  0
   -4.0606  -45.5636    7.2263 C   0  0  0  0  0  0  0  0  0  0  0  0
   -3.8918  -45.0359    5.9226 C   0  0  0  0  0  0  0  0  0  0  0  0
   -5.0075  -44.6755    5.1465 C   0  0  0  0  0  0  0  0  0  0  0  0
   -6.3050  -44.8355    5.6606 C   0  0  0  0  0  0  0  0  0  0  0  0
   -6.4926  -45.3504    6.9558 C   0  0  0  0  0  0  0  0  0  0  0  0
    0.9870  -50.4703    6.6481 N   0  0  0  0  0  0  0  0  0  0  0  0
    4.4738  -48.0870    7.0430 H   0  0  0  0  0  0  0  0  0  0  0  0
   -1.0627  -52.4926    6.4892 H   0  0  0  0  0  0  0  0  0  0  0  0
   -3.3885  -51.9130    5.7808 H   0  0  0  0  0  0  0  0  0  0  0  0
   -3.9465  -49.5650    5.1646 H   0  0  0  0  0  0  0  0  0  0  0  0
   -2.2215  -47.7962    5.2942 H   0  0  0  0  0  0  0  0  0  0  0  0
    1.6242  -46.6450    5.4221 H   0  0  0  0  0  0  0  0  0  0  0  0
   -0.1646  -46.5007    5.3452 H   0  0  0  0  0  0  0  0  0  0  0  0
    1.5702  -46.3552    7.8576 H   0  0  0  0  0  0  0  0  0  0  0  0
    0.7719  -44.9771    7.0269 H   0  0  0  0  0  0  0  0  0  0  0  0
   -0.6816  -47.3147    8.3594 H   0  0  0  0  0  0  0  0  0  0  0  0
   -0.4387  -45.6877    9.0810 H   0  0  0  0  0  0  0  0  0  0  0  0
   -6.5624  -46.3633    9.4313 H   0  0  0  0  0  0  0  0  0  0  0  0
   -4.5985  -47.0134   10.8050 H   0  0  0  0  0  0  0  0  0  0  0  0
   -2.3042  -46.7373    9.9135 H   0  0  0  0  0  0  0  0  0  0  0  0
   -2.8972  -44.9093    5.5212 H   0  0  0  0  0  0  0  0  0  0  0  0
   -4.8667  -44.2750    4.1534 H   0  0  0  0  0  0  0  0  0  0  0  0
   -7.1601  -44.5626    5.0600 H   0  0  0  0  0  0  0  0  0  0  0  0
   -7.4913  -45.4641    7.3509 H   0  0  0  0  0  0  0  0  0  0  0  0
    1.4905  -51.2864    6.9317 H   0  0  0  0  0  0  0  0  0  0  0  0
  1  2  2  0  0  0  0
  2  3  1  0  0  0  0
  2  4  1  0  0  0  0
  4 11  2  0  0  0  0
  4 26  1  0  0  0  0
  5  6  2  0  0  0  0
  5 10  1  0  0  0  0
  5 26  1  0  0  0  0
  6  7  1  0  0  0  0
  7  8  2  0  0  0  0
  8  9  1  0  0  0  0
  9 10  2  0  0  0  0
 10 11  1  0  0  0  0
 11 12  1  0  0  0  0
 12 13  1  0  0  0  0
 13 14  1  0  0  0  0
 14 15  1  0  0  0  0
 15 16  1  0  0  0  0
 16 19  2  0  0  0  0
 16 21  1  0  0  0  0
 17 18  2  0  0  0  0
 17 20  1  0  0  0  0
 18 19  1  0  0  0  0
 20 21  2  0  0  0  0
 20 25  1  0  0  0  0
 21 22  1  0  0  0  0
 22 23  2  0  0  0  0
 23 24  1  0  0  0  0
 24 25  2  0  0  0  0
  3 27  1  0  0  0  0
  6 28  1  0  0  0  0
  7 29  1  0  0  0  0
  8 30  1  0  0  0  0
  9 31  1  0  0  0  0
 12 32  1  0  0  0  0
 12 33  1  0  0  0  0
 13 34  1  0  0  0  0
 13 35  1  0  0  0  0
 14 36  1  0  0  0  0
 14 37  1  0  0  0  0
 17 38  1  0  0  0  0
 18 39  1  0  0  0  0
 19 40  1  0  0  0  0
 22 41  1  0  0  0  0
 23 42  1  0  0  0  0
 24 43  1  0  0  0  0
 25 44  1  0  0  0  0
 26 45  1  0  0  0  0
M  END
> <r_user_dG.exp>
-8.89674735927531

$$$$
42
  -OEChem-05162309453D
 Structure written by MMmdl.
 45 48  0     1  0  0  0  0  0999 V2000
    3.6010  -50.1309    7.2173 O   0  0  0  0  0  0  0  0  0  0  0  0
    2.9795  -49.0944    6.8829 C   0  0  0  0  0  0  0  0  0  0  0  0
    3.5582  -47.9830    6.8122 O   0  0  0  0  0  0  0  0  0  0  0  0
    1.5366  -49.2034    6.5537 C   0  0  0  0  0  0  0  0  0  0  0  0
   -0.3472  -50.4577    6.2991 C   0  0  0  0  0  0  0  0  0  0  0  0
   -1.3179  -51.4749    6.2331 C   0  0  0  0  0  0  0  0  0  0  0  0
   -2.6289  -51.1468    5.8278 C   0  0  0  0  0  0  0  0  0  0  0  0
   -2.9455  -49.8148    5.4839 C   0  0  0  0  0  0  0  0  0  0  0  0
   -1.9618  -48.8114    5.5555 C   0  0  0  0  0  0  0  0  0  0  0  0
   -0.6358  -49.1065    5.9640 C   0  0  0  0  0  0  0  0  0  0  0  0
    0.5554  -48.3244    6.1538 C   0  0  3  0  0  0  0  0  0  0  0  0
    0.6833  -46.8447    5.9557 C   0  0  0  0  0  0  0  0  0  0  0  0
    0.6911  -46.0461    7.2731 C   0  0  0  0  0  0  0  0  0  0  0  0
   -0.5530  -46.2446    8.1393 C   0  0  0  0  0  0  0  0  0  0  0  0
   -1.6886  -45.7642    7.4384 O   0  0  0  0  0  0  0  0  0  0  0  0
   -2.9365  -45.9351    8.0039 C   0  0  0  0  0  0  0  0  0  0  0  0
   -5.5641  -46.2439    9.0369 C   0  0  0  0  0  0  0  0  0  0  0  0
   -4.4526  -46.6108    9.8135 C   0  0  0  0  0  0  0  0  0  0  0  0
   -3.1512  -46.4560    9.3053 C   0  0  0  0  0  0  0  0  0  0  0  0
   -5.3751  -45.7201    7.7432 C   0  0  0  0  0  0  0  0  0  0  0  0
   -4.0606  -45.5636    7.2263 C   0  0  0  0  0  0  0  0  0  0  0  0
   -3.8918  -45.0359    5.9226 C   0  0  0  0  0  0  0  0  0  0  0  0
   -5.0075  -44.6755    5.1465 C   0  0  0  0  0  0  0  0  0  0  0  0
   -6.3050  -44.8355    5.6606 C   0  0  0  0  0  0  0  0  0  0  0  0
   -6.4926  -45.3504    6.9558 C   0  0  0  0  0  0  0  0  0  0  0  0
    0.9870  -50.4703    6.6481 N   0  0  0  0  0  0  0  0  0  0  0  0
    4.4738  -48.0870    7.0430 H   0  0  0  0  0  0  0  0  0  0  0  0
   -1.0627  -52.4926    6.4892 H   0  0  0  0  0  0  0  0  0  0  0  0
   -3.3885  -51.9130    5.7808 H   0  0  0  0  0  0  0  0  0  0  0  0
   -3.9465  -49.5650    5.1646 H   0  0  0  0  0  0  0  0  0  0  0  0
   -2.2215  -47.7962    5.2942 H   0  0  0  0  0  0  0  0  0  0  0  0
    0.8334  -48.4904    5.1025 H   0  0  0  0  0  0  0  0  0  0  0  0
    1.6242  -46.6450    5.4221 H   0  0  0  0  0  0  0  0  0  0  0  0
   -0.1646  -46.5007    5.3452 H   0  0  0  0  0  0  0  0  0  0  0  0
    1.5702  -46.3552    7.8576 H   0  0  0  0  0  0  0  0  0  0  0  0
    0.7719  -44.9771    7.0269 H   0  0  0  0  0  0  0  0  0  0  0  0
   -0.6816  -47.3147    8.3594 H   0  0  0  0  0  0  0  0  0  0  0  0
   -0.4387  -45.6877    9.0810 H   0  0  0  0  0  0  0  0  0  0  0  0
   -6.5624  -46.3633    9.4313 H   0  0  0  0  0  0  0  0  0  0  0  0
   -4.5985  -47.0134   10.8050 H   0  0  0  0  0  0  0  0  0  0  0  0
   -2.3042  -46.7373    9.9135 H   0  0  0  0  0  0  0  0  0  0  0  0
   -2.8972  -44.9093    5.5212 H   0  0  0  0  0  0  0  0  0  0  0  0
   -4.8667  -44.2750    4.1534 H   0  0  0  0  0  0  0  0  0  0  0  0
   -7.1601  -44.5626    5.0600 H   0  0  0  0  0  0  0  0  0  0  0  0
   -7.4913  -45.4641    7.3509 H   0  0  0  0  0  0  0  0  0  0  0  0
  1  2  2  0  0  0  0
  2  3  1  0  0  0  0
  2  4  1  0  0  0  0
  4 11  1  0  0  0  0
  4 26  2  0  0  0  0
  5  6  2  0  0  0  0
  5 10  1  0  0  0  0
  5 26  1  0  0  0  0
  6  7  1  0  0  0  0
  7  8  2  0  0  0  0
  8  9  1  0  0  0  0
  9 10  2  0  0  0  0
 10 11  1  0  0  0  0
 11 12  1  0  0  0  0
 12 13  1  0  0  0  0
 13 14  1  0  0  0  0
 14 15  1  0  0  0  0
 15 16  1  0  0  0  0
 16 19  2  0  0  0  0
 16 21  1  0  0  0  0
 17 18  2  0  0  0  0
 17 20  1  0  0  0  0
 18 19  1  0  0  0  0
 20 21  2  0  0  0  0
 20 25  1  0  0  0  0
 21 22  1  0  0  0  0
 22 23  2  0  0  0  0
 23 24  1  0  0  0  0
 24 25  2  0  0  0  0
  3 27  1  0  0  0  0
  6 28  1  0  0  0  0
  7 29  1  0  0  0  0
  8 30  1  0  0  0  0
  9 31  1  0  0  0  0
 11 32  1  0  0  0  0
 12 33  1  0  0  0  0
 12 34  1  0  0  0  0
 13 35  1  0  0  0  0
 13 36  1  0  0  0  0
 14 37  1  0  0  0  0
 14 38  1  0  0  0  0
 17 39  1  0  0  0  0
 18 40  1  0  0  0  0
 19 41  1  0  0  0  0
 22 42  1  0  0  0  0
 23 43  1  0  0  0  0
 24 44  1  0  0  0  0
 25 45  1  0  0  0  0
M  END
> <r_user_dG.exp>
-8.89674735927531

$$$$
42
  -OEChem-05162309453D
 Structure written by MMmdl.
 45 48  0     1  0  0  0  0  0999 V2000
    3.6010  -50.1309    7.2173 O   0  0  0  0  0  0  0  0  0  0  0  0
    2.9795  -49.0944    6.8829 C   0  0  0  0  0  0  0  0  0  0  0  0
    3.5582  -47.9830    6.8122 O   0  0  0  0  0  0  0  0  0  0  0  0
    1.5366  -49.2034    6.5537 C   0  0  3  0  0  0  0  0  0  0  0  0
   -0.3472  -50.4577    6.2991 C   0  0  0  0  0  0  0  0  0  0  0  0
   -1.3179  -51.4749    6.2331 C   0  0  0  0  0  0  0  0  0  0  0  0
   -2.6289  -51.1468    5.8278 C   0  0  0  0  0  0  0  0  0  0  0  0
   -2.9455  -49.8148    5.4839 C   0  0  0  0  0  0  0  0  0  0  0  0
   -1.9618  -48.8114    5.5555 C   0  0  0  0  0  0  0  0  0  0  0  0
   -0.6358  -49.1065    5.9640 C   0  0  0  0  0  0  0  0  0  0  0  0
    0.5554  -48.3244    6.1538 C   0  0  0  0  0  0  0  0  0  0  0  0
    0.6833  -46.8447    5.9557 C   0  0  0  0  0  0  0  0  0  0  0  0
    0.6911  -46.0461    7.2731 C   0  0  0  0  0  0  0  0  0  0  0  0
   -0.5530  -46.2446    8.1393 C   0  0  0  0  0  0  0  0  0  0  0  0
   -1.6886  -45.7642    7.4384 O   0  0  0  0  0  0  0  0  0  0  0  0
   -2.9365  -45.9351    8.0039 C   0  0  0  0  0  0  0  0  0  0  0  0
   -5.5641  -46.2439    9.0369 C   0  0  0  0  0  0  0  0  0  0  0  0
   -4.4526  -46.6108    9.8135 C   0  0  0  0  0  0  0  0  0  0  0  0
   -3.1512  -46.4560    9.3053 C   0  0  0  0  0  0  0  0  0  0  0  0
   -5.3751  -45.7201    7.7432 C   0  0  0  0  0  0  0  0  0  0  0  0
   -4.0606  -45.5636    7.2263 C   0  0  0  0  0  0  0  0  0  0  0  0
   -3.8918  -45.0359    5.9226 C   0  0  0  0  0  0  0  0  0  0  0  0
   -5.0075  -44.6755    5.1465 C   0  0  0  0  0  0  0  0  0  0  0  0
   -6.3050  -44.8355    5.6606 C   0  0  0  0  0  0  0  0  0  0  0  0
   -6.4926  -45.3504    6.9558 C   0  0  0  0  0  0  0  0  0  0  0  0
    0.9870  -50.4703    6.6481 N   0  0  0  0  0  0  0  0  0  0  0  0
    4.4738  -48.0870    7.0430 H   0  0  0  0  0  0  0  0  0  0  0  0
    1.2807  -49.0124    7.6063 H   0  0  0  0  0  0  0  0  0  0  0  0
   -1.0627  -52.4926    6.4892 H   0  0  0  0  0  0  0  0  0  0  0  0
   -3.3885  -51.9130    5.7808 H   0  0  0  0  0  0  0  0  0  0  0  0
   -3.9465  -49.5650    5.1646 H   0  0  0  0  0  0  0  0  0  0  0  0
   -2.2215  -47.7962    5.2942 H   0  0  0  0  0  0  0  0  0  0  0  0
    1.6242  -46.6450    5.4221 H   0  0  0  0  0  0  0  0  0  0  0  0
   -0.1646  -46.5007    5.3452 H   0  0  0  0  0  0  0  0  0  0  0  0
    1.5702  -46.3552    7.8576 H   0  0  0  0  0  0  0  0  0  0  0  0
    0.7719  -44.9771    7.0269 H   0  0  0  0  0  0  0  0  0  0  0  0
   -0.6816  -47.3147    8.3594 H   0  0  0  0  0  0  0  0  0  0  0  0
   -0.4387  -45.6877    9.0810 H   0  0  0  0  0  0  0  0  0  0  0  0
   -6.5624  -46.3633    9.4313 H   0  0  0  0  0  0  0  0  0  0  0  0
   -4.5985  -47.0134   10.8050 H   0  0  0  0  0  0  0  0  0  0  0  0
   -2.3042  -46.7373    9.9135 H   0  0  0  0  0  0  0  0  0  0  0  0
   -2.8972  -44.9093    5.5212 H   0  0  0  0  0  0  0  0  0  0  0  0
   -4.8667  -44.2750    4.1534 H   0  0  0  0  0  0  0  0  0  0  0  0
   -7.1601  -44.5626    5.0600 H   0  0  0  0  0  0  0  0  0  0  0  0
   -7.4913  -45.4641    7.3509 H   0  0  0  0  0  0  0  0  0  0  0  0
  1  2  2  0  0  0  0
  2  3  1  0  0  0  0
  2  4  1  0  0  0  0
  4 11  1  0  0  0  0
  4 26  1  0  0  0  0
  5  6  1  0  0  0  0
  5 10  1  0  0  0  0
  5 26  2  0  0  0  0
  6  7  2  0  0  0  0
  7  8  1  0  0  0  0
  8  9  2  0  0  0  0
  9 10  1  0  0  0  0
 10 11  2  0  0  0  0
 11 12  1  0  0  0  0
 12 13  1  0  0  0  0
 13 14  1  0  0  0  0
 14 15  1  0  0  0  0
 15 16  1  0  0  0  0
 16 19  2  0  0  0  0
 16 21  1  0  0  0  0
 17 18  2  0  0  0  0
 17 20  1  0  0  0  0
 18 19  1  0  0  0  0
 20 21  2  0  0  0  0
 20 25  1  0  0  0  0
 21 22  1  0  0  0  0
 22 23  2  0  0  0  0
 23 24  1  0  0  0  0
 24 25  2  0  0  0  0
  3 27  1  0  0  0  0
  4 28  1  0  0  0  0
  6 29  1  0  0  0  0
  7 30  1  0  0  0  0
  8 31  1  0  0  0  0
  9 32  1  0  0  0  0
 12 33  1  0  0  0  0
 12 34  1  0  0  0  0
 13 35  1  0  0  0  0
 13 36  1  0  0  0  0
 14 37  1  0  0  0  0
 14 38  1  0  0  0  0
 17 39  1  0  0  0  0
 18 40  1  0  0  0  0
 19 41  1  0  0  0  0
 22 42  1  0  0  0  0
 23 43  1  0  0  0  0
 24 44  1  0  0  0  0
 25 45  1  0  0  0  0
M  END
> <r_user_dG.exp>
-8.89674735927531

$$$$
42
  -OEChem-05162309453D
 Structure written by MMmdl.
 45 48  0     1  0  0  0  0  0999 V2000
    3.6010  -50.1309    7.2173 O   0  0  0  0  0  0  0  0  0  0  0  0
    2.9795  -49.0944    6.8829 C   0  0  0  0  0  0  0  0  0  0  0  0
    3.5582  -47.9830    6.8122 O   0  0  0  0  0  0  0  0  0  0  0  0
    1.5366  -49.2034    6.5537 C   0  0  0  0  0  0  0  0  0  0  0  0
   -0.3472  -50.4577    6.2991 C   0  0  0  0  0  0  0  0  0  0  0  0
   -1.3179  -51.4749    6.2331 C   0  0  0  0  0  0  0  0  0  0  0  0
   -2.6289  -51.1468    5.8278 C   0  0  0  0  0  0  0  0  0  0  0  0
   -2.9455  -49.8148    5.4839 C   0  0  0  0  0  0  0  0  0  0  0  0
   -1.9618  -48.8114    5.5555 C   0  0  0  0  0  0  0  0  0  0  0  0
   -0.6358  -49.1065    5.9640 C   0  0  3  0  0  0  0  0  0  0  0  0
    0.5554  -48.3244    6.1538 C   0  0  0  0  0  0  0  0  0  0  0  0
    0.6833  -46.8447    5.9557 C   0  0  0  0  0  0  0  0  0  0  0  0
    0.6911  -46.0461    7.2731 C   0  0  0  0  0  0  0  0  0  0  0  0
   -0.5530  -46.2446    8.1393 C   0  0  0  0  0  0  0  0  0  0  0  0
   -1.6886  -45.7642    7.4384 O   0  0  0  0  0  0  0  0  0  0  0  0
   -2.9365  -45.9351    8.0039 C   0  0  0  0  0  0  0  0  0  0  0  0
   -5.5641  -46.2439    9.0369 C   0  0  0  0  0  0  0  0  0  0  0  0
   -4.4526  -46.6108    9.8135 C   0  0  0  0  0  0  0  0  0  0  0  0
   -3.1512  -46.4560    9.3053 C   0  0  0  0  0  0  0  0  0  0  0  0
   -5.3751  -45.7201    7.7432 C   0  0  0  0  0  0  0  0  0  0  0  0
   -4.0606  -45.5636    7.2263 C   0  0  0  0  0  0  0  0  0  0  0  0
   -3.8918  -45.0359    5.9226 C   0  0  0  0  0  0  0  0  0  0  0  0
   -5.0075  -44.6755    5.1465 C   0  0  0  0  0  0  0  0  0  0  0  0
   -6.3050  -44.8355    5.6606 C   0  0  0  0  0  0  0  0  0  0  0  0
   -6.4926  -45.3504    6.9558 C   0  0  0  0  0  0  0  0  0  0  0  0
    0.9870  -50.4703    6.6481 N   0  0  0  0  0  0  0  0  0  0  0  0
    4.4738  -48.0870    7.0430 H   0  0  0  0  0  0  0  0  0  0  0  0
   -1.0627  -52.4926    6.4892 H   0  0  0  0  0  0  0  0  0  0  0  0
   -3.3885  -51.9130    5.7808 H   0  0  0  0  0  0  0  0  0  0  0  0
   -3.9465  -49.5650    5.1646 H   0  0  0  0  0  0  0  0  0  0  0  0
   -2.2215  -47.7962    5.2942 H   0  0  0  0  0  0  0  0  0  0  0  0
   -0.3503  -49.2984    4.9192 H   0  0  0  0  0  0  0  0  0  0  0  0
    1.6242  -46.6450    5.4221 H   0  0  0  0  0  0  0  0  0  0  0  0
   -0.1646  -46.5007    5.3452 H   0  0  0  0  0  0  0  0  0  0  0  0
    1.5702  -46.3552    7.8576 H   0  0  0  0  0  0  0  0  0  0  0  0
    0.7719  -44.9771    7.0269 H   0  0  0  0  0  0  0  0  0  0  0  0
   -0.6816  -47.3147    8.3594 H   0  0  0  0  0  0  0  0  0  0  0  0
   -0.4387  -45.6877    9.0810 H   0  0  0  0  0  0  0  0  0  0  0  0
   -6.5624  -46.3633    9.4313 H   0  0  0  0  0  0  0  0  0  0  0  0
   -4.5985  -47.0134   10.8050 H   0  0  0  0  0  0  0  0  0  0  0  0
   -2.3042  -46.7373    9.9135 H   0  0  0  0  0  0  0  0  0  0  0  0
   -2.8972  -44.9093    5.5212 H   0  0  0  0  0  0  0  0  0  0  0  0
   -4.8667  -44.2750    4.1534 H   0  0  0  0  0  0  0  0  0  0  0  0
   -7.1601  -44.5626    5.0600 H   0  0  0  0  0  0  0  0  0  0  0  0
   -7.4913  -45.4641    7.3509 H   0  0  0  0  0  0  0  0  0  0  0  0
  1  2  2  0  0  0  0
  2  3  1  0  0  0  0
  2  4  1  0  0  0  0
  4 11  2  0  0  0  0
  4 26  1  0  0  0  0
  5  6  1  0  0  0  0
  5 10  1  0  0  0  0
  5 26  2  0  0  0  0
  6  7  2  0  0  0  0
  7  8  1  0  0  0  0
  8  9  2  0  0  0  0
  9 10  1  0  0  0  0
 10 11  1  0  0  0  0
 11 12  1  0  0  0  0
 12 13  1  0  0  0  0
 13 14  1  0  0  0  0
 14 15  1  0  0  0  0
 15 16  1  0  0  0  0
 16 19  2  0  0  0  0
 16 21  1  0  0  0  0
 17 18  2  0  0  0  0
 17 20  1  0  0  0  0
 18 19  1  0  0  0  0
 20 21  2  0  0  0  0
 20 25  1  0  0  0  0
 21 22  1  0  0  0  0
 22 23  2  0  0  0  0
 23 24  1  0  0  0  0
 24 25  2  0  0  0  0
  3 27  1  0  0  0  0
  6 28  1  0  0  0  0
  7 29  1  0  0  0  0
  8 30  1  0  0  0  0
  9 31  1  0  0  0  0
 10 32  1  0  0  0  0
 12 33  1  0  0  0  0
 12 34  1  0  0  0  0
 13 35  1  0  0  0  0
 13 36  1  0  0  0  0
 14 37  1  0  0  0  0
 14 38  1  0  0  0  0
 17 39  1  0  0  0  0
 18 40  1  0  0  0  0
 19 41  1  0  0  0  0
 22 42  1  0  0  0  0
 23 43  1  0  0  0  0
 24 44  1  0  0  0  0
 25 45  1  0  0  0  0
M  END
> <r_user_dG.exp>
-8.89674735927531

$$$$
42
  -OEChem-05162309453D
 Structure written by MMmdl.
 45 48  0     1  0  0  0  0  0999 V2000
    3.6010  -50.1309    7.2173 O   0  0  0  0  0  0  0  0  0  0  0  0
    2.9795  -49.0944    6.8829 C   0  0  0  0  0  0  0  0  0  0  0  0
    3.5582  -47.9830    6.8122 O   0  0  0  0  0  0  0  0  0  0  0  0
    1.5366  -49.2034    6.5537 C   0  0  0  0  0  0  0  0  0  0  0  0
   -0.3472  -50.4577    6.2991 C   0  0  3  0  0  0  0  0  0  0  0  0
   -1.3179  -51.4749    6.2331 C   0  0  0  0  0  0  0  0  0  0  0  0
   -2.6289  -51.1468    5.8278 C   0  0  0  0  0  0  0  0  0  0  0  0
   -2.9455  -49.8148    5.4839 C   0  0  0  0  0  0  0  0  0  0  0  0
   -1.9618  -48.8114    5.5555 C   0  0  0  0  0  0  0  0  0  0  0  0
   -0.6358  -49.1065    5.9640 C   0  0  0  0  0  0  0  0  0  0  0  0
    0.5554  -48.3244    6.1538 C   0  0  0  0  0  0  0  0  0  0  0  0
    0.6833  -46.8447    5.9557 C   0  0  0  0  0  0  0  0  0  0  0  0
    0.6911  -46.0461    7.2731 C   0  0  0  0  0  0  0  0  0  0  0  0
   -0.5530  -46.2446    8.1393 C   0  0  0  0  0  0  0  0  0  0  0  0
   -1.6886  -45.7642    7.4384 O   0  0  0  0  0  0  0  0  0  0  0  0
   -2.9365  -45.9351    8.0039 C   0  0  0  0  0  0  0  0  0  0  0  0
   -5.5641  -46.2439    9.0369 C   0  0  0  0  0  0  0  0  0  0  0  0
   -4.4526  -46.6108    9.8135 C   0  0  0  0  0  0  0  0  0  0  0  0
   -3.1512  -46.4560    9.3053 C   0  0  0  0  0  0  0  0  0  0  0  0
   -5.3751  -45.7201    7.7432 C   0  0  0  0  0  0  0  0  0  0  0  0
   -4.0606  -45.5636    7.2263 C   0  0  0  0  0  0  0  0  0  0  0  0
   -3.8918  -45.0359    5.9226 C   0  0  0  0  0  0  0  0  0  0  0  0
   -5.0075  -44.6755    5.1465 C   0  0  0  0  0  0  0  0  0  0  0  0
   -6.3050  -44.8355    5.6606 C   0  0  0  0  0  0  0  0  0  0  0  0
   -6.4926  -45.3504    6.9558 C   0  0  0  0  0  0  0  0  0  0  0  0
    0.9870  -50.4703    6.6481 N   0  0  0  0  0  0  0  0  0  0  0  0
    4.4738  -48.0870    7.0430 H   0  0  0  0  0  0  0  0  0  0  0  0
   -0.6220  -50.2597    7.3457 H   0  0  0  0  0  0  0  0  0  0  0  0
   -1.0627  -52.4926    6.4892 H   0  0  0  0  0  0  0  0  0  0  0  0
   -3.3885  -51.9130    5.7808 H   0  0  0  0  0  0  0  0  0  0  0  0
   -3.9465  -49.5650    5.1646 H   0  0  0  0  0  0  0  0  0  0  0  0
   -2.2215  -47.7962    5.2942 H   0  0  0  0  0  0  0  0  0  0  0  0
    1.6242  -46.6450    5.4221 H   0  0  0  0  0  0  0  0  0  0  0  0
   -0.1646  -46.5007    5.3452 H   0  0  0  0  0  0  0  0  0  0  0  0
    1.5702  -46.3552    7.8576 H   0  0  0  0  0  0  0  0  0  0  0  0
    0.7719  -44.9771    7.0269 H   0  0  0  0  0  0  0  0  0  0  0  0
   -0.6816  -47.3147    8.3594 H   0  0  0  0  0  0  0  0  0  0  0  0
   -0.4387  -45.6877    9.0810 H   0  0  0  0  0  0  0  0  0  0  0  0
   -6.5624  -46.3633    9.4313 H   0  0  0  0  0  0  0  0  0  0  0  0
   -4.5985  -47.0134   10.8050 H   0  0  0  0  0  0  0  0  0  0  0  0
   -2.3042  -46.7373    9.9135 H   0  0  0  0  0  0  0  0  0  0  0  0
   -2.8972  -44.9093    5.5212 H   0  0  0  0  0  0  0  0  0  0  0  0
   -4.8667  -44.2750    4.1534 H   0  0  0  0  0  0  0  0  0  0  0  0
   -7.1601  -44.5626    5.0600 H   0  0  0  0  0  0  0  0  0  0  0  0
   -7.4913  -45.4641    7.3509 H   0  0  0  0  0  0  0  0  0  0  0  0
  1  2  2  0  0  0  0
  2  3  1  0  0  0  0
  2  4  1  0  0  0  0
  4 11  1  0  0  0  0
  4 26  2  0  0  0  0
  5  6  1  0  0  0  0
  5 10  1  0  0  0  0
  5 26  1  0  0  0  0
  6  7  2  0  0  0  0
  7  8  1  0  0  0  0
  8  9  2  0  0  0  0
  9 10  1  0  0  0  0
 10 11  2  0  0  0  0
 11 12  1  0  0  0  0
 12 13  1  0  0  0  0
 13 14  1  0  0  0  0
 14 15  1  0  0  0  0
 15 16  1  0  0  0  0
 16 19  2  0  0  0  0
 16 21  1  0  0  0  0
 17 18  2  0  0  0  0
 17 20  1  0  0  0  0
 18 19  1  0  0  0  0
 20 21  2  0  0  0  0
 20 25  1  0  0  0  0
 21 22  1  0  0  0  0
 22 23  2  0  0  0  0
 23 24  1  0  0  0  0
 24 25  2  0  0  0  0
  3 27  1  0  0  0  0
  5 28  1  0  0  0  0
  6 29  1  0  0  0  0
  7 30  1  0  0  0  0
  8 31  1  0  0  0  0
  9 32  1  0  0  0  0
 12 33  1  0  0  0  0
 12 34  1  0  0  0  0
 13 35  1  0  0  0  0
 13 36  1  0  0  0  0
 14 37  1  0  0  0  0
 14 38  1  0  0  0  0
 17 39  1  0  0  0  0
 18 40  1  0  0  0  0
 19 41  1  0  0  0  0
 22 42  1  0  0  0  0
 23 43  1  0  0  0  0
 24 44  1  0  0  0  0
 25 45  1  0  0  0  0
M  END
> <r_user_dG.exp>
-8.89674735927531

$$$$
42
  -OEChem-05162309453D
 Structure written by MMmdl.
 45 48  0     0  0  0  0  0  0999 V2000
    3.6010  -50.1309    7.2173 O   0  0  0  0  0  0  0  0  0  0  0  0
    2.9795  -49.0944    6.8829 C   0  0  0  0  0  0  0  0  0  0  0  0
    3.5582  -47.9830    6.8122 O   0  0  0  0  0  0  0  0  0  0  0  0
    1.5366  -49.2034    6.5537 C   0  0  0  0  0  0  0  0  0  0  0  0
   -0.3472  -50.4577    6.2991 C   0  0  0  0  0  0  0  0  0  0  0  0
   -1.3179  -51.4749    6.2331 C   0  0  0  0  0  0  0  0  0  0  0  0
   -2.6289  -51.1468    5.8278 C   0  0  0  0  0  0  0  0  0  0  0  0
   -2.9455  -49.8148    5.4839 C   0  0  0  0  0  0  0  0  0  0  0  0
   -1.9618  -48.8114    5.5555 C   0  0  0  0  0  0  0  0  0  0  0  0
   -0.6358  -49.1065    5.9640 C   0  0  0  0  0  0  0  0  0  0  0  0
    0.5554  -48.3244    6.1538 C   0  0  0  0  0  0  0  0  0  0  0  0
    0.6833  -46.8447    5.9557 C   0  0  0  0  0  0  0  0  0  0  0  0
    0.6911  -46.0461    7.2731 C   0  0  0  0  0  0  0  0  0  0  0  0
   -0.5530  -46.2446    8.1393 C   0  0  0  0  0  0  0  0  0  0  0  0
   -1.6886  -45.7642    7.4384 O   0  0  0  0  0  0  0  0  0  0  0  0
   -2.9365  -45.9351    8.0039 C   0  0  0  0  0  0  0  0  0  0  0  0
   -5.5641  -46.2439    9.0369 C   0  0  0  0  0  0  0  0  0  0  0  0
   -4.4526  -46.6108    9.8135 C   0  0  0  0  0  0  0  0  0  0  0  0
   -3.1512  -46.4560    9.3053 C   0  0  0  0  0  0  0  0  0  0  0  0
   -5.3751  -45.7201    7.7432 C   0  0  0  0  0  0  0  0  0  0  0  0
   -4.0606  -45.5636    7.2263 C   0  0  0  0  0  0  0  0  0  0  0  0
   -3.8918  -45.0359    5.9226 C   0  0  0  0  0  0  0  0  0  0  0  0
   -5.0075  -44.6755    5.1465 C   0  0  0  0  0  0  0  0  0  0  0  0
   -6.3050  -44.8355    5.6606 C   0  0  0  0  0  0  0  0  0  0  0  0
   -6.4926  -45.3504    6.9558 C   0  0  0  0  0  0  0  0  0  0  0  0
    0.9870  -50.4703    6.6481 N   0  0  0  0  0  0  0  0  0  0  0  0
    4.4738  -48.0870    7.0430 H   0  0  0  0  0  0  0  0  0  0  0  0
   -1.0627  -52.4926    6.4892 H   0  0  0  0  0  0  0  0  0  0  0  0
   -3.3885  -51.9130    5.7808 H   0  0  0  0  0  0  0  0  0  0  0  0
   -3.3036  -49.8331    4.4440 H   0  0  0  0  0  0  0  0  0  0  0  0
   -3.7647  -49.5027    6.1483 H   0  0  0  0  0  0  0  0  0  0  0  0
   -2.2215  -47.7962    5.2942 H   0  0  0  0  0  0  0  0  0  0  0  0
    1.6242  -46.6450    5.4221 H   0  0  0  0  0  0  0  0  0  0  0  0
   -0.1646  -46.5007    5.3452 H   0  0  0  0  0  0  0  0  0  0  0  0
    1.5702  -46.3552    7.8576 H   0  0  0  0  0  0  0  0  0  0  0  0
    0.7719  -44.9771    7.0269 H   0  0  0  0  0  0  0  0  0  0  0  0
   -0.6816  -47.3147    8.3594 H   0  0  0  0  0  0  0  0  0  0  0  0
   -0.4387  -45.6877    9.0810 H   0  0  0  0  0  0  0  0  0  0  0  0
   -6.5624  -46.3633    9.4313 H   0  0  0  0  0  0  0  0  0  0  0  0
   -4.5985  -47.0134   10.8050 H   0  0  0  0  0  0  0  0  0  0  0  0
   -2.3042  -46.7373    9.9135 H   0  0  0  0  0  0  0  0  0  0  0  0
   -2.8972  -44.9093    5.5212 H   0  0  0  0  0  0  0  0  0  0  0  0
   -4.8667  -44.2750    4.1534 H   0  0  0  0  0  0  0  0  0  0  0  0
   -7.1601  -44.5626    5.0600 H   0  0  0  0  0  0  0  0  0  0  0  0
   -7.4913  -45.4641    7.3509 H   0  0  0  0  0  0  0  0  0  0  0  0
  1  2  2  0  0  0  0
  2  3  1  0  0  0  0
  2  4  1  0  0  0  0
  4 11  2  0  0  0  0
  4 26  1  0  0  0  0
  5  6  1  0  0  0  0
  5 10  1  0  0  0  0
  5 26  2  0  0  0  0
  6  7  2  0  0  0  0
  7  8  1  0  0  0  0
  8  9  1  0  0  0  0
  9 10  2  0  0  0  0
 10 11  1  0  0  0  0
 11 12  1  0  0  0  0
 12 13  1  0  0  0  0
 13 14  1  0  0  0  0
 14 15  1  0  0  0  0
 15 16  1  0  0  0  0
 16 19  2  0  0  0  0
 16 21  1  0  0  0  0
 17 18  2  0  0  0  0
 17 20  1  0  0  0  0
 18 19  1  0  0  0  0
 20 21  2  0  0  0  0
 20 25  1  0  0  0  0
 21 22  1  0  0  0  0
 22 23  2  0  0  0  0
 23 24  1  0  0  0  0
 24 25  2  0  0  0  0
  3 27  1  0  0  0  0
  6 28  1  0  0  0  0
  7 29  1  0  0  0  0
  8 30  1  0  0  0  0
  8 31  1  0  0  0  0
  9 32  1  0  0  0  0
 12 33  1  0  0  0  0
 12 34  1  0  0  0  0
 13 35  1  0  0  0  0
 13 36  1  0  0  0  0
 14 37  1  0  0  0  0
 14 38  1  0  0  0  0
 17 39  1  0  0  0  0
 18 40  1  0  0  0  0
 19 41  1  0  0  0  0
 22 42  1  0  0  0  0
 23 43  1  0  0  0  0
 24 44  1  0  0  0  0
 25 45  1  0  0  0  0
M  END
> <r_user_dG.exp>
-8.89674735927531

$$$$
42
  -OEChem-05162309453D
 Structure written by MMmdl.
 45 48  0     0  0  0  0  0  0999 V2000
    3.6010  -50.1309    7.2173 O   0  0  0  0  0  0  0  0  0  0  0  0
    2.9795  -49.0944    6.8829 C   0  0  0  0  0  0  0  0  0  0  0  0
    3.5582  -47.9830    6.8122 O   0  0  0  0  0  0  0  0  0  0  0  0
    1.5366  -49.2034    6.5537 C   0  0  0  0  0  0  0  0  0  0  0  0
   -0.3472  -50.4577    6.2991 C   0  0  0  0  0  0  0  0  0  0  0  0
   -1.3179  -51.4749    6.2331 C   0  0  0  0  0  0  0  0  0  0  0  0
   -2.6289  -51.1468    5.8278 C   0  0  0  0  0  0  0  0  0  0  0  0
   -2.9455  -49.8148    5.4839 C   0  0  0  0  0  0  0  0  0  0  0  0
   -1.9618  -48.8114    5.5555 C   0  0  0  0  0  0  0  0  0  0  0  0
   -0.6358  -49.1065    5.9640 C   0  0  0  0  0  0  0  0  0  0  0  0
    0.5554  -48.3244    6.1538 C   0  0  0  0  0  0  0  0  0  0  0  0
    0.6833  -46.8447    5.9557 C   0  0  0  0  0  0  0  0  0  0  0  0
    0.6911  -46.0461    7.2731 C   0  0  0  0  0  0  0  0  0  0  0  0
   -0.5530  -46.2446    8.1393 C   0  0  0  0  0  0  0  0  0  0  0  0
   -1.6886  -45.7642    7.4384 O   0  0  0  0  0  0  0  0  0  0  0  0
   -2.9365  -45.9351    8.0039 C   0  0  0  0  0  0  0  0  0  0  0  0
   -5.5641  -46.2439    9.0369 C   0  0  0  0  0  0  0  0  0  0  0  0
   -4.4526  -46.6108    9.8135 C   0  0  0  0  0  0  0  0  0  0  0  0
   -3.1512  -46.4560    9.3053 C   0  0  0  0  0  0  0  0  0  0  0  0
   -5.3751  -45.7201    7.7432 C   0  0  0  0  0  0  0  0  0  0  0  0
   -4.0606  -45.5636    7.2263 C   0  0  0  0  0  0  0  0  0  0  0  0
   -3.8918  -45.0359    5.9226 C   0  0  0  0  0  0  0  0  0  0  0  0
   -5.0075  -44.6755    5.1465 C   0  0  0  0  0  0  0  0  0  0  0  0
   -6.3050  -44.8355    5.6606 C   0  0  0  0  0  0  0  0  0  0  0  0
   -6.4926  -45.3504    6.9558 C   0  0  0  0  0  0  0  0  0  0  0  0
    0.9870  -50.4703    6.6481 N   0  0  0  0  0  0  0  0  0  0  0  0
    4.4738  -48.0870    7.0430 H   0  0  0  0  0  0  0  0  0  0  0  0
   -1.0627  -52.4926    6.4892 H   0  0  0  0  0  0  0  0  0  0  0  0
   -2.8536  -51.7651    4.9462 H   0  0  0  0  0  0  0  0  0  0  0  0
   -3.2976  -51.4297    6.6541 H   0  0  0  0  0  0  0  0  0  0  0  0
   -3.9465  -49.5650    5.1646 H   0  0  0  0  0  0  0  0  0  0  0  0
   -2.2215  -47.7962    5.2942 H   0  0  0  0  0  0  0  0  0  0  0  0
    1.6242  -46.6450    5.4221 H   0  0  0  0  0  0  0  0  0  0  0  0
   -0.1646  -46.5007    5.3452 H   0  0  0  0  0  0  0  0  0  0  0  0
    1.5702  -46.3552    7.8576 H   0  0  0  0  0  0  0  0  0  0  0  0
    0.7719  -44.9771    7.0269 H   0  0  0  0  0  0  0  0  0  0  0  0
   -0.6816  -47.3147    8.3594 H   0  0  0  0  0  0  0  0  0  0  0  0
   -0.4387  -45.6877    9.0810 H   0  0  0  0  0  0  0  0  0  0  0  0
   -6.5624  -46.3633    9.4313 H   0  0  0  0  0  0  0  0  0  0  0  0
   -4.5985  -47.0134   10.8050 H   0  0  0  0  0  0  0  0  0  0  0  0
   -2.3042  -46.7373    9.9135 H   0  0  0  0  0  0  0  0  0  0  0  0
   -2.8972  -44.9093    5.5212 H   0  0  0  0  0  0  0  0  0  0  0  0
   -4.8667  -44.2750    4.1534 H   0  0  0  0  0  0  0  0  0  0  0  0
   -7.1601  -44.5626    5.0600 H   0  0  0  0  0  0  0  0  0  0  0  0
   -7.4913  -45.4641    7.3509 H   0  0  0  0  0  0  0  0  0  0  0  0
  1  2  2  0  0  0  0
  2  3  1  0  0  0  0
  2  4  1  0  0  0  0
  4 11  1  0  0  0  0
  4 26  2  0  0  0  0
  5  6  2  0  0  0  0
  5 10  1  0  0  0  0
  5 26  1  0  0  0  0
  6  7  1  0  0  0  0
  7  8  1  0  0  0  0
  8  9  2  0  0  0  0
  9 10  1  0  0  0  0
 10 11  2  0  0  0  0
 11 12  1  0  0  0  0
 12 13  1  0  0  0  0
 13 14  1  0  0  0  0
 14 15  1  0  0  0  0
 15 16  1  0  0  0  0
 16 19  2  0  0  0  0
 16 21  1  0  0  0  0
 17 18  2  0  0  0  0
 17 20  1  0  0  0  0
 18 19  1  0  0  0  0
 20 21  2  0  0  0  0
 20 25  1  0  0  0  0
 21 22  1  0  0  0  0
 22 23  2  0  0  0  0
 23 24  1  0  0  0  0
 24 25  2  0  0  0  0
  3 27  1  0  0  0  0
  6 28  1  0  0  0  0
  7 29  1  0  0  0  0
  7 30  1  0  0  0  0
  8 31  1  0  0  0  0
  9 32  1  0  0  0  0
 12 33  1  0  0  0  0
 12 34  1  0  0  0  0
 13 35  1  0  0  0  0
 13 36  1  0  0  0  0
 14 37  1  0  0  0  0
 14 38  1  0  0  0  0
 17 39  1  0  0  0  0
 18 40  1  0  0  0  0
 19 41  1  0  0  0  0
 22 42  1  0  0  0  0
 23 43  1  0  0  0  0
 24 44  1  0  0  0  0
 25 45  1  0  0  0  0
M  END
> <r_user_dG.exp>
-8.89674735927531

$$$$
42
  -OEChem-05162309453D
 Structure written by MMmdl.
 45 48  0     0  0  0  0  0  0999 V2000
    3.6010  -50.1309    7.2173 O   0  0  0  0  0  0  0  0  0  0  0  0
    2.9795  -49.0944    6.8829 C   0  0  0  0  0  0  0  0  0  0  0  0
    3.5582  -47.9830    6.8122 O   0  0  0  0  0  0  0  0  0  0  0  0
    1.5366  -49.2034    6.5537 C   0  0  0  0  0  0  0  0  0  0  0  0
   -0.3472  -50.4577    6.2991 C   0  0  0  0  0  0  0  0  0  0  0  0
   -1.3179  -51.4749    6.2331 C   0  0  0  0  0  0  0  0  0  0  0  0
   -2.6289  -51.1468    5.8278 C   0  0  0  0  0  0  0  0  0  0  0  0
   -2.9455  -49.8148    5.4839 C   0  0  0  0  0  0  0  0  0  0  0  0
   -1.9618  -48.8114    5.5555 C   0  0  0  0  0  0  0  0  0  0  0  0
   -0.6358  -49.1065    5.9640 C   0  0  0  0  0  0  0  0  0  0  0  0
    0.5554  -48.3244    6.1538 C   0  0  0  0  0  0  0  0  0  0  0  0
    0.6833  -46.8447    5.9557 C   0  0  0  0  0  0  0  0  0  0  0  0
    0.6911  -46.0461    7.2731 C   0  0  0  0  0  0  0  0  0  0  0  0
   -0.5530  -46.2446    8.1393 C   0  0  0  0  0  0  0  0  0  0  0  0
   -1.6886  -45.7642    7.4384 O   0  0  0  0  0  0  0  0  0  0  0  0
   -2.9365  -45.9351    8.0039 C   0  0  0  0  0  0  0  0  0  0  0  0
   -5.5641  -46.2439    9.0369 C   0  0  0  0  0  0  0  0  0  0  0  0
   -4.4526  -46.6108    9.8135 C   0  0  0  0  0  0  0  0  0  0  0  0
   -3.1512  -46.4560    9.3053 C   0  0  0  0  0  0  0  0  0  0  0  0
   -5.3751  -45.7201    7.7432 C   0  0  0  0  0  0  0  0  0  0  0  0
   -4.0606  -45.5636    7.2263 C   0  0  0  0  0  0  0  0  0  0  0  0
   -3.8918  -45.0359    5.9226 C   0  0  0  0  0  0  0  0  0  0  0  0
   -5.0075  -44.6755    5.1465 C   0  0  0  0  0  0  0  0  0  0  0  0
   -6.3050  -44.8355    5.6606 C   0  0  0  0  0  0  0  0  0  0  0  0
   -6.4926  -45.3504    6.9558 C   0  0  0  0  0  0  0  0  0  0  0  0
    0.9870  -50.4703    6.6481 N   0  0  0  0  0  0  0  0  0  0  0  0
    4.4738  -48.0870    7.0430 H   0  0  0  0  0  0  0  0  0  0  0  0
   -0.9432  -52.2322    5.5287 H   0  0  0  0  0  0  0  0  0  0  0  0
   -1.3924  -51.9145    7.2387 H   0  0  0  0  0  0  0  0  0  0  0  0
   -3.3885  -51.9130    5.7808 H   0  0  0  0  0  0  0  0  0  0  0  0
   -3.9465  -49.5650    5.1646 H   0  0  0  0  0  0  0  0  0  0  0  0
   -2.2215  -47.7962    5.2942 H   0  0  0  0  0  0  0  0  0  0  0  0
    1.6242  -46.6450    5.4221 H   0  0  0  0  0  0  0  0  0  0  0  0
   -0.1646  -46.5007    5.3452 H   0  0  0  0  0  0  0  0  0  0  0  0
    1.5702  -46.3552    7.8576 H   0  0  0  0  0  0  0  0  0  0  0  0
    0.7719  -44.9771    7.0269 H   0  0  0  0  0  0  0  0  0  0  0  0
   -0.6816  -47.3147    8.3594 H   0  0  0  0  0  0  0  0  0  0  0  0
   -0.4387  -45.6877    9.0810 H   0  0  0  0  0  0  0  0  0  0  0  0
   -6.5624  -46.3633    9.4313 H   0  0  0  0  0  0  0  0  0  0  0  0
   -4.5985  -47.0134   10.8050 H   0  0  0  0  0  0  0  0  0  0  0  0
   -2.3042  -46.7373    9.9135 H   0  0  0  0  0  0  0  0  0  0  0  0
   -2.8972  -44.9093    5.5212 H   0  0  0  0  0  0  0  0  0  0  0  0
   -4.8667  -44.2750    4.1534 H   0  0  0  0  0  0  0  0  0  0  0  0
   -7.1601  -44.5626    5.0600 H   0  0  0  0  0  0  0  0  0  0  0  0
   -7.4913  -45.4641    7.3509 H   0  0  0  0  0  0  0  0  0  0  0  0
  1  2  2  0  0  0  0
  2  3  1  0  0  0  0
  2  4  1  0  0  0  0
  4 11  2  0  0  0  0
  4 26  1  0  0  0  0
  5  6  1  0  0  0  0
  5 10  1  0  0  0  0
  5 26  2  0  0  0  0
  6  7  1  0  0  0  0
  7  8  2  0  0  0  0
  8  9  1  0  0  0  0
  9 10  2  0  0  0  0
 10 11  1  0  0  0  0
 11 12  1  0  0  0  0
 12 13  1  0  0  0  0
 13 14  1  0  0  0  0
 14 15  1  0  0  0  0
 15 16  1  0  0  0  0
 16 19  2  0  0  0  0
 16 21  1  0  0  0  0
 17 18  2  0  0  0  0
 17 20  1  0  0  0  0
 18 19  1  0  0  0  0
 20 21  2  0  0  0  0
 20 25  1  0  0  0  0
 21 22  1  0  0  0  0
 22 23  2  0  0  0  0
 23 24  1  0  0  0  0
 24 25  2  0  0  0  0
  3 27  1  0  0  0  0
  6 28  1  0  0  0  0
  6 29  1  0  0  0  0
  7 30  1  0  0  0  0
  8 31  1  0  0  0  0
  9 32  1  0  0  0  0
 12 33  1  0  0  0  0
 12 34  1  0  0  0  0
 13 35  1  0  0  0  0
 13 36  1  0  0  0  0
 14 37  1  0  0  0  0
 14 38  1  0  0  0  0
 17 39  1  0  0  0  0
 18 40  1  0  0  0  0
 19 41  1  0  0  0  0
 22 42  1  0  0  0  0
 23 43  1  0  0  0  0
 24 44  1  0  0  0  0
 25 45  1  0  0  0  0
M  END
> <r_user_dG.exp>
-8.89674735927531

$$$$
42
  -OEChem-05162309453D
 Structure written by MMmdl.
 45 48  0     0  0  0  0  0  0999 V2000
    3.6010  -50.1309    7.2173 O   0  0  0  0  0  0  0  0  0  0  0  0
    2.9795  -49.0944    6.8829 C   0  0  0  0  0  0  0  0  0  0  0  0
    3.5582  -47.9830    6.8122 O   0  0  0  0  0  0  0  0  0  0  0  0
    1.5366  -49.2034    6.5537 C   0  0  0  0  0  0  0  0  0  0  0  0
   -0.3472  -50.4577    6.2991 C   0  0  0  0  0  0  0  0  0  0  0  0
   -1.3179  -51.4749    6.2331 C   0  0  0  0  0  0  0  0  0  0  0  0
   -2.6289  -51.1468    5.8278 C   0  0  0  0  0  0  0  0  0  0  0  0
   -2.9455  -49.8148    5.4839 C   0  0  0  0  0  0  0  0  0  0  0  0
   -1.9618  -48.8114    5.5555 C   0  0  0  0  0  0  0  0  0  0  0  0
   -0.6358  -49.1065    5.9640 C   0  0  0  0  0  0  0  0  0  0  0  0
    0.5554  -48.3244    6.1538 C   0  0  0  0  0  0  0  0  0  0  0  0
    0.6833  -46.8447    5.9557 C   0  0  0  0  0  0  0  0  0  0  0  0
    0.6911  -46.0461    7.2731 C   0  0  0  0  0  0  0  0  0  0  0  0
   -0.5530  -46.2446    8.1393 C   0  0  0  0  0  0  0  0  0  0  0  0
   -1.6886  -45.7642    7.4384 O   0  0  0  0  0  0  0  0  0  0  0  0
   -2.9365  -45.9351    8.0039 C   0  0  0  0  0  0  0  0  0  0  0  0
   -5.5641  -46.2439    9.0369 C   0  0  0  0  0  0  0  0  0  0  0  0
   -4.4526  -46.6108    9.8135 C   0  0  0  0  0  0  0  0  0  0  0  0
   -3.1512  -46.4560    9.3053 C   0  0  0  0  0  0  0  0  0  0  0  0
   -5.3751  -45.7201    7.7432 C   0  0  0  0  0  0  0  0  0  0  0  0
   -4.0606  -45.5636    7.2263 C   0  0  0  0  0  0  0  0  0  0  0  0
   -3.8918  -45.0359    5.9226 C   0  0  0  0  0  0  0  0  0  0  0  0
   -5.0075  -44.6755    5.1465 C   0  0  0  0  0  0  0  0  0  0  0  0
   -6.3050  -44.8355    5.6606 C   0  0  0  0  0  0  0  0  0  0  0  0
   -6.4926  -45.3504    6.9558 C   0  0  0  0  0  0  0  0  0  0  0  0
    0.9870  -50.4703    6.6481 N   0  0  0  0  0  0  0  0  0  0  0  0
    4.4738  -48.0870    7.0430 H   0  0  0  0  0  0  0  0  0  0  0  0
   -1.0627  -52.4926    6.4892 H   0  0  0  0  0  0  0  0  0  0  0  0
   -3.3885  -51.9130    5.7808 H   0  0  0  0  0  0  0  0  0  0  0  0
   -3.9465  -49.5650    5.1646 H   0  0  0  0  0  0  0  0  0  0  0  0
   -1.8874  -48.3761    4.5480 H   0  0  0  0  0  0  0  0  0  0  0  0
   -2.3415  -48.0527    6.2557 H   0  0  0  0  0  0  0  0  0  0  0  0
    1.6242  -46.6450    5.4221 H   0  0  0  0  0  0  0  0  0  0  0  0
   -0.1646  -46.5007    5.3452 H   0  0  0  0  0  0  0  0  0  0  0  0
    1.5702  -46.3552    7.8576 H   0  0  0  0  0  0  0  0  0  0  0  0
    0.7719  -44.9771    7.0269 H   0  0  0  0  0  0  0  0  0  0  0  0
   -0.6816  -47.3147    8.3594 H   0  0  0  0  0  0  0  0  0  0  0  0
   -0.4387  -45.6877    9.0810 H   0  0  0  0  0  0  0  0  0  0  0  0
   -6.5624  -46.3633    9.4313 H   0  0  0  0  0  0  0  0  0  0  0  0
   -4.5985  -47.0134   10.8050 H   0  0  0  0  0  0  0  0  0  0  0  0
   -2.3042  -46.7373    9.9135 H   0  0  0  0  0  0  0  0  0  0  0  0
   -2.8972  -44.9093    5.5212 H   0  0  0  0  0  0  0  0  0  0  0  0
   -4.8667  -44.2750    4.1534 H   0  0  0  0  0  0  0  0  0  0  0  0
   -7.1601  -44.5626    5.0600 H   0  0  0  0  0  0  0  0  0  0  0  0
   -7.4913  -45.4641    7.3509 H   0  0  0  0  0  0  0  0  0  0  0  0
  1  2  2  0  0  0  0
  2  3  1  0  0  0  0
  2  4  1  0  0  0  0
  4 11  1  0  0  0  0
  4 26  2  0  0  0  0
  5  6  2  0  0  0  0
  5 10  1  0  0  0  0
  5 26  1  0  0  0  0
  6  7  1  0  0  0  0
  7  8  2  0  0  0  0
  8  9  1  0  0  0  0
  9 10  1  0  0  0  0
 10 11  2  0  0  0  0
 11 12  1  0  0  0  0
 12 13  1  0  0  0  0
 13 14  1  0  0  0  0
 14 15  1  0  0  0  0
 15 16  1  0  0  0  0
 16 19  2  0  0  0  0
 16 21  1  0  0  0  0
 17 18  2  0  0  0  0
 17 20  1  0  0  0  0
 18 19  1  0  0  0  0
 20 21  2  0  0  0  0
 20 25  1  0  0  0  0
 21 22  1  0  0  0  0
 22 23  2  0  0  0  0
 23 24  1  0  0  0  0
 24 25  2  0  0  0  0
  3 27  1  0  0  0  0
  6 28  1  0  0  0  0
  7 29  1  0  0  0  0
  8 30  1  0  0  0  0
  9 31  1  0  0  0  0
  9 32  1  0  0  0  0
 12 33  1  0  0  0  0
 12 34  1  0  0  0  0
 13 35  1  0  0  0  0
 13 36  1  0  0  0  0
 14 37  1  0  0  0  0
 14 38  1  0  0  0  0
 17 39  1  0  0  0  0
 18 40  1  0  0  0  0
 19 41  1  0  0  0  0
 22 42  1  0  0  0  0
 23 43  1  0  0  0  0
 24 44  1  0  0  0  0
 25 45  1  0  0  0  0
M  END
> <r_user_dG.exp>
-8.89674735927531

$$$$
42
  -OEChem-05162309453D
 Structure written by MMmdl.
 45 48  0     0  0  0  0  0  0999 V2000
    3.6010  -50.1309    7.2173 O   0  0  0  0  0  0  0  0  0  0  0  0
    2.9795  -49.0944    6.8829 C   0  0  0  0  0  0  0  0  0  0  0  0
    3.5582  -47.9830    6.8122 O   0  0  0  0  0  0  0  0  0  0  0  0
    1.5366  -49.2034    6.5537 C   0  0  0  0  0  0  0  0  0  0  0  0
   -0.3472  -50.4577    6.2991 C   0  0  0  0  0  0  0  0  0  0  0  0
   -1.3179  -51.4749    6.2331 C   0  0  0  0  0  0  0  0  0  0  0  0
   -2.6289  -51.1468    5.8278 C   0  0  0  0  0  0  0  0  0  0  0  0
   -2.9455  -49.8148    5.4839 C   0  0  0  0  0  0  0  0  0  0  0  0
   -1.9618  -48.8114    5.5555 C   0  0  0  0  0  0  0  0  0  0  0  0
   -0.6358  -49.1065    5.9640 C   0  0  0  0  0  0  0  0  0  0  0  0
    0.5554  -48.3244    6.1538 C   0  0  0  0  0  0  0  0  0  0  0  0
    0.6833  -46.8447    5.9557 C   0  0  0  0  0  0  0  0  0  0  0  0
    0.6911  -46.0461    7.2731 C   0  0  0  0  0  0  0  0  0  0  0  0
   -0.5530  -46.2446    8.1393 C   0  0  0  0  0  0  0  0  0  0  0  0
   -1.6886  -45.7642    7.4384 O   0  0  0  0  0  0  0  0  0  0  0  0
   -2.9365  -45.9351    8.0039 C   0  0  0  0  0  0  0  0  0  0  0  0
   -5.5641  -46.2439    9.0369 C   0  0  0  0  0  0  0  0  0  0  0  0
   -4.4526  -46.6108    9.8135 C   0  0  0  0  0  0  0  0  0  0  0  0
   -3.1512  -46.4560    9.3053 C   0  0  0  0  0  0  0  0  0  0  0  0
   -5.3751  -45.7201    7.7432 C   0  0  0  0  0  0  0  0  0  0  0  0
   -4.0606  -45.5636    7.2263 C   0  0  0  0  0  0  0  0  0  0  0  0
   -3.8918  -45.0359    5.9226 C   0  0  0  0  0  0  0  0  0  0  0  0
   -5.0075  -44.6755    5.1465 C   0  0  0  0  0  0  0  0  0  0  0  0
   -6.3050  -44.8355    5.6606 C   0  0  0  0  0  0  0  0  0  0  0  0
   -6.4926  -45.3504    6.9558 C   0  0  0  0  0  0  0  0  0  0  0  0
    0.9870  -50.4703    6.6481 N   0  0  0  0  0  0  0  0  0  0  0  0
    3.0062  -50.8716    7.2161 H   0  0  0  0  0  0  0  0  0  0  0  0
    2.9350  -47.3174    6.5456 H   0  0  0  0  0  0  0  0  0  0  0  0
   -1.0627  -52.4926    6.4892 H   0  0  0  0  0  0  0  0  0  0  0  0
   -3.3885  -51.9130    5.7808 H   0  0  0  0  0  0  0  0  0  0  0  0
   -3.9465  -49.5650    5.1646 H   0  0  0  0  0  0  0  0  0  0  0  0
   -2.2215  -47.7962    5.2942 H   0  0  0  0  0  0  0  0  0  0  0  0
    1.6242  -46.6450    5.4221 H   0  0  0  0  0  0  0  0  0  0  0  0
   -0.1646  -46.5007    5.3452 H   0  0  0  0  0  0  0  0  0  0  0  0
    1.5702  -46.3552    7.8576 H   0  0  0  0  0  0  0  0  0  0  0  0
    0.7719  -44.9771    7.0269 H   0  0  0  0  0  0  0  0  0  0  0  0
   -0.6816  -47.3147    8.3594 H   0  0  0  0  0  0  0  0  0  0  0  0
   -0.4387  -45.6877    9.0810 H   0  0  0  0  0  0  0  0  0  0  0  0
   -6.5624  -46.3633    9.4313 H   0  0  0  0  0  0  0  0  0  0  0  0
   -4.5985  -47.0134   10.8050 H   0  0  0  0  0  0  0  0  0  0  0  0
   -2.3042  -46.7373    9.9135 H   0  0  0  0  0  0  0  0  0  0  0  0
   -2.8972  -44.9093    5.5212 H   0  0  0  0  0  0  0  0  0  0  0  0
   -4.8667  -44.2750    4.1534 H   0  0  0  0  0  0  0  0  0  0  0  0
   -7.1601  -44.5626    5.0600 H   0  0  0  0  0  0  0  0  0  0  0  0
   -7.4913  -45.4641    7.3509 H   0  0  0  0  0  0  0  0  0  0  0  0
  1  2  1  0  0  0  0
  2  3  1  0  0  0  0
  2  4  2  0  0  0  0
  4 11  1  0  0  0  0
  4 26  1  0  0  0  0
  5  6  1  0  0  0  0
  5 10  1  0  0  0  0
  5 26  2  0  0  0  0
  6  7  2  0  0  0  0
  7  8  1  0  0  0  0
  8  9  2  0  0  0  0
  9 10  1  0  0  0  0
 10 11  2  0  0  0  0
 11 12  1  0  0  0  0
 12 13  1  0  0  0  0
 13 14  1  0  0  0  0
 14 15  1  0  0  0  0
 15 16  1  0  0  0  0
 16 19  2  0  0  0  0
 16 21  1  0  0  0  0
 17 18  2  0  0  0  0
 17 20  1  0  0  0  0
 18 19  1  0  0  0  0
 20 21  2  0  0  0  0
 20 25  1  0  0  0  0
 21 22  1  0  0  0  0
 22 23  2  0  0  0  0
 23 24  1  0  0  0  0
 24 25  2  0  0  0  0
  1 27  1  0  0  0  0
  3 28  1  0  0  0  0
  6 29  1  0  0  0  0
  7 30  1  0  0  0  0
  8 31  1  0  0  0  0
  9 32  1  0  0  0  0
 12 33  1  0  0  0  0
 12 34  1  0  0  0  0
 13 35  1  0  0  0  0
 13 36  1  0  0  0  0
 14 37  1  0  0  0  0
 14 38  1  0  0  0  0
 17 39  1  0  0  0  0
 18 40  1  0  0  0  0
 19 41  1  0  0  0  0
 22 42  1  0  0  0  0
 23 43  1  0  0  0  0
 24 44  1  0  0  0  0
 25 45  1  0  0  0  0
M  END
> <r_user_dG.exp>
-8.89674735927531

$$$$
