p38a_2c
  -OEChem-05192314073D
 Structure written by MMmdl.
 45 48  0     0  0  0  0  0  0999 V2000
   31.6235   38.9529   26.1544 C   0  0  0  0  0  0  0  0  0  0  0  0
   31.0952   38.3551   27.4684 C   0  0  0  0  0  0  0  0  0  0  0  0
   33.0541   38.9788   28.6539 C   0  0  0  0  0  0  0  0  0  0  0  0
   33.6809   39.6144   27.4031 C   0  0  0  0  0  0  0  0  0  0  0  0
   31.6350   39.0631   28.5784 O   0  0  0  0  0  0  0  0  0  0  0  0
   34.5448   34.9770   21.1828 C   0  0  0  0  0  0  0  0  0  0  0  0
   34.0445   38.9756   23.7378 C   0  0  0  0  0  0  0  0  0  0  0  0
   33.1562   38.9294   26.1332 C   0  0  0  0  0  0  0  0  0  0  0  0
   34.8025   37.8108   21.4407 C   0  0  0  0  0  0  0  0  0  0  0  0
   35.2536   37.1252   20.2344 C   0  0  0  0  0  0  0  0  0  0  0  0
   34.3067   37.0366   22.5109 C   0  0  0  0  0  0  0  0  0  0  0  0
   34.8522   39.2088   21.6169 C   0  0  0  0  0  0  0  0  0  0  0  0
   33.6690   34.8315   23.4618 C   0  0  0  0  0  0  0  0  0  0  0  0
   34.4789   39.7925   22.7772 N   0  0  0  0  0  0  0  0  0  0  0  0
   34.3290   33.7761   21.0235 O   0  0  0  0  0  0  0  0  0  0  0  0
   34.2121   35.6181   22.3415 N   0  0  0  0  0  0  0  0  0  0  0  0
   33.9306   37.6499   23.6560 N   0  0  0  0  0  0  0  0  0  0  0  0
   33.6717   39.5652   24.9268 N   0  0  0  0  0  0  0  0  0  0  0  0
   35.1939   35.7469   20.0596 C   0  0  0  0  0  0  0  0  0  0  0  0
   36.7445   33.8221   16.5753 C   0  0  0  0  0  0  0  0  0  0  0  0
   36.8299   35.2183   16.7031 C   0  0  0  0  0  0  0  0  0  0  0  0
   36.3201   35.8511   17.8486 C   0  0  0  0  0  0  0  0  0  0  0  0
   35.7249   35.0878   18.8664 C   0  0  0  0  0  0  0  0  0  0  0  0
   35.6395   33.6916   18.7387 C   0  0  0  0  0  0  0  0  0  0  0  0
   36.1494   33.0588   17.5931 C   0  0  0  0  0  0  0  0  0  0  0  0
   36.4252   37.5707   18.0060 Cl  0  0  0  0  0  0  0  0  0  0  0  0
   31.2405   38.3633   25.3084 H   0  0  0  0  0  0  0  0  0  0  0  0
   31.2759   39.9926   26.0639 H   0  0  0  0  0  0  0  0  0  0  0  0
   29.9979   38.4304   27.4873 H   0  0  0  0  0  0  0  0  0  0  0  0
   31.3913   37.2976   27.5322 H   0  0  0  0  0  0  0  0  0  0  0  0
   33.3543   37.9224   28.7161 H   0  0  0  0  0  0  0  0  0  0  0  0
   33.4045   39.5129   29.5494 H   0  0  0  0  0  0  0  0  0  0  0  0
   33.4222   40.6831   27.3715 H   0  0  0  0  0  0  0  0  0  0  0  0
   34.7743   39.5030   27.4494 H   0  0  0  0  0  0  0  0  0  0  0  0
   33.4820   37.8789   26.1529 H   0  0  0  0  0  0  0  0  0  0  0  0
   35.6573   37.7228   19.4305 H   0  0  0  0  0  0  0  0  0  0  0  0
   35.1976   39.8294   20.8033 H   0  0  0  0  0  0  0  0  0  0  0  0
   33.4566   35.4988   24.3101 H   0  0  0  0  0  0  0  0  0  0  0  0
   32.7402   34.3349   23.1446 H   0  0  0  0  0  0  0  0  0  0  0  0
   34.4045   34.0728   23.7675 H   0  0  0  0  0  0  0  0  0  0  0  0
   34.4889   40.0547   25.2310 H   0  0  0  0  0  0  0  0  0  0  0  0
   37.1364   33.3355   15.6944 H   0  0  0  0  0  0  0  0  0  0  0  0
   37.2876   35.8052   15.9205 H   0  0  0  0  0  0  0  0  0  0  0  0
   35.1818   33.1047   19.5213 H   0  0  0  0  0  0  0  0  0  0  0  0
   36.0839   31.9853   17.4949 H   0  0  0  0  0  0  0  0  0  0  0  0
  1  2  1  0  0  0  0
  1  8  1  0  0  0  0
  2  5  1  0  0  0  0
  3  4  1  0  0  0  0
  3  5  1  0  0  0  0
  4  8  1  0  0  0  0
  6 15  2  0  0  0  0
  6 16  1  0  0  0  0
  6 19  1  0  0  0  0
  7 14  2  0  0  0  0
  7 17  1  0  0  0  0
  7 18  1  0  0  0  0
  8 18  1  0  0  0  0
  9 10  1  0  0  0  0
  9 11  1  0  0  0  0
  9 12  2  0  0  0  0
 10 19  2  0  0  0  0
 11 16  1  0  0  0  0
 11 17  2  0  0  0  0
 12 14  1  0  0  0  0
 13 16  1  0  0  0  0
 19 23  1  0  0  0  0
 20 21  2  0  0  0  0
 20 25  1  0  0  0  0
 21 22  1  0  0  0  0
 22 23  2  0  0  0  0
 22 26  1  0  0  0  0
 23 24  1  0  0  0  0
 24 25  2  0  0  0  0
  1 27  1  0  0  0  0
  1 28  1  0  0  0  0
  2 29  1  0  0  0  0
  2 30  1  0  0  0  0
  3 31  1  0  0  0  0
  3 32  1  0  0  0  0
  4 33  1  0  0  0  0
  4 34  1  0  0  0  0
  8 35  1  0  0  0  0
 10 36  1  0  0  0  0
 12 37  1  0  0  0  0
 13 38  1  0  0  0  0
 13 39  1  0  0  0  0
 13 40  1  0  0  0  0
 18 41  1  0  0  0  0
 20 42  1  0  0  0  0
 21 43  1  0  0  0  0
 24 44  1  0  0  0  0
 25 45  1  0  0  0  0
M  END
> <r_user_dG.exp>
-10.462

$$$$
p38a_2c
  -OEChem-05192314073D
 Structure written by MMmdl.
 45 48  0     0  0  0  0  0  0999 V2000
   31.6235   38.9529   26.1544 C   0  0  0  0  0  0  0  0  0  0  0  0
   31.0952   38.3551   27.4684 C   0  0  0  0  0  0  0  0  0  0  0  0
   33.0541   38.9788   28.6539 C   0  0  0  0  0  0  0  0  0  0  0  0
   33.6809   39.6144   27.4031 C   0  0  0  0  0  0  0  0  0  0  0  0
   31.6350   39.0631   28.5784 O   0  0  0  0  0  0  0  0  0  0  0  0
   34.5448   34.9770   21.1828 C   0  0  0  0  0  0  0  0  0  0  0  0
   34.0445   38.9756   23.7378 C   0  0  0  0  0  0  0  0  0  0  0  0
   33.1562   38.9294   26.1332 C   0  0  0  0  0  0  0  0  0  0  0  0
   34.8025   37.8108   21.4407 C   0  0  0  0  0  0  0  0  0  0  0  0
   35.2536   37.1252   20.2344 C   0  0  0  0  0  0  0  0  0  0  0  0
   34.3067   37.0366   22.5109 C   0  0  0  0  0  0  0  0  0  0  0  0
   34.8522   39.2088   21.6169 C   0  0  0  0  0  0  0  0  0  0  0  0
   33.6690   34.8315   23.4618 C   0  0  0  0  0  0  0  0  0  0  0  0
   34.4789   39.7925   22.7772 N   0  0  0  0  0  0  0  0  0  0  0  0
   34.3290   33.7761   21.0235 O   0  0  0  0  0  0  0  0  0  0  0  0
   34.2121   35.6181   22.3415 N   0  0  0  0  0  0  0  0  0  0  0  0
   33.9306   37.6499   23.6560 N   0  0  0  0  0  0  0  0  0  0  0  0
   33.6717   39.5652   24.9268 N   0  0  0  0  0  0  0  0  0  0  0  0
   35.1939   35.7469   20.0596 C   0  0  0  0  0  0  0  0  0  0  0  0
   36.7445   33.8221   16.5753 C   0  0  0  0  0  0  0  0  0  0  0  0
   36.8299   35.2183   16.7031 C   0  0  0  0  0  0  0  0  0  0  0  0
   36.3201   35.8511   17.8486 C   0  0  0  0  0  0  0  0  0  0  0  0
   35.7249   35.0878   18.8664 C   0  0  0  0  0  0  0  0  0  0  0  0
   35.6395   33.6916   18.7387 C   0  0  0  0  0  0  0  0  0  0  0  0
   36.1494   33.0588   17.5931 C   0  0  0  0  0  0  0  0  0  0  0  0
   36.4252   37.5707   18.0060 Cl  0  0  0  0  0  0  0  0  0  0  0  0
   31.2405   38.3633   25.3084 H   0  0  0  0  0  0  0  0  0  0  0  0
   31.2759   39.9926   26.0639 H   0  0  0  0  0  0  0  0  0  0  0  0
   29.9979   38.4304   27.4873 H   0  0  0  0  0  0  0  0  0  0  0  0
   31.3913   37.2976   27.5322 H   0  0  0  0  0  0  0  0  0  0  0  0
   33.3543   37.9224   28.7161 H   0  0  0  0  0  0  0  0  0  0  0  0
   33.4045   39.5129   29.5494 H   0  0  0  0  0  0  0  0  0  0  0  0
   33.4222   40.6831   27.3715 H   0  0  0  0  0  0  0  0  0  0  0  0
   34.7743   39.5030   27.4494 H   0  0  0  0  0  0  0  0  0  0  0  0
   33.4820   37.8789   26.1529 H   0  0  0  0  0  0  0  0  0  0  0  0
   35.6573   37.7228   19.4305 H   0  0  0  0  0  0  0  0  0  0  0  0
   35.1976   39.8294   20.8033 H   0  0  0  0  0  0  0  0  0  0  0  0
   33.4566   35.4988   24.3101 H   0  0  0  0  0  0  0  0  0  0  0  0
   32.7402   34.3349   23.1446 H   0  0  0  0  0  0  0  0  0  0  0  0
   34.4045   34.0728   23.7675 H   0  0  0  0  0  0  0  0  0  0  0  0
   33.5744   37.1199   24.4255 H   0  0  0  0  0  0  0  0  0  0  0  0
   37.1364   33.3355   15.6944 H   0  0  0  0  0  0  0  0  0  0  0  0
   37.2876   35.8052   15.9205 H   0  0  0  0  0  0  0  0  0  0  0  0
   35.1818   33.1047   19.5213 H   0  0  0  0  0  0  0  0  0  0  0  0
   36.0839   31.9853   17.4949 H   0  0  0  0  0  0  0  0  0  0  0  0
  1  2  1  0  0  0  0
  1  8  1  0  0  0  0
  2  5  1  0  0  0  0
  3  4  1  0  0  0  0
  3  5  1  0  0  0  0
  4  8  1  0  0  0  0
  6 15  2  0  0  0  0
  6 16  1  0  0  0  0
  6 19  1  0  0  0  0
  7 14  1  0  0  0  0
  7 17  1  0  0  0  0
  7 18  2  0  0  0  0
  8 18  1  0  0  0  0
  9 10  1  0  0  0  0
  9 11  2  0  0  0  0
  9 12  1  0  0  0  0
 10 19  2  0  0  0  0
 11 16  1  0  0  0  0
 11 17  1  0  0  0  0
 12 14  2  0  0  0  0
 13 16  1  0  0  0  0
 19 23  1  0  0  0  0
 20 21  2  0  0  0  0
 20 25  1  0  0  0  0
 21 22  1  0  0  0  0
 22 23  2  0  0  0  0
 22 26  1  0  0  0  0
 23 24  1  0  0  0  0
 24 25  2  0  0  0  0
  1 27  1  0  0  0  0
  1 28  1  0  0  0  0
  2 29  1  0  0  0  0
  2 30  1  0  0  0  0
  3 31  1  0  0  0  0
  3 32  1  0  0  0  0
  4 33  1  0  0  0  0
  4 34  1  0  0  0  0
  8 35  1  0  0  0  0
 10 36  1  0  0  0  0
 12 37  1  0  0  0  0
 13 38  1  0  0  0  0
 13 39  1  0  0  0  0
 13 40  1  0  0  0  0
 17 41  1  0  0  0  0
 20 42  1  0  0  0  0
 21 43  1  0  0  0  0
 24 44  1  0  0  0  0
 25 45  1  0  0  0  0
M  END
> <r_user_dG.exp>
-10.462

$$$$
p38a_2c
  -OEChem-05192314073D
 Structure written by MMmdl.
 45 48  0     0  0  0  0  0  0999 V2000
   31.6235   38.9529   26.1544 C   0  0  0  0  0  0  0  0  0  0  0  0
   31.0952   38.3551   27.4684 C   0  0  0  0  0  0  0  0  0  0  0  0
   33.0541   38.9788   28.6539 C   0  0  0  0  0  0  0  0  0  0  0  0
   33.6809   39.6144   27.4031 C   0  0  0  0  0  0  0  0  0  0  0  0
   31.6350   39.0631   28.5784 O   0  0  0  0  0  0  0  0  0  0  0  0
   34.5448   34.9770   21.1828 C   0  0  0  0  0  0  0  0  0  0  0  0
   34.0445   38.9756   23.7378 C   0  0  0  0  0  0  0  0  0  0  0  0
   33.1562   38.9294   26.1332 C   0  0  0  0  0  0  0  0  0  0  0  0
   34.8025   37.8108   21.4407 C   0  0  0  0  0  0  0  0  0  0  0  0
   35.2536   37.1252   20.2344 C   0  0  0  0  0  0  0  0  0  0  0  0
   34.3067   37.0366   22.5109 C   0  0  0  0  0  0  0  0  0  0  0  0
   34.8522   39.2088   21.6169 C   0  0  0  0  0  0  0  0  0  0  0  0
   33.6690   34.8315   23.4618 C   0  0  0  0  0  0  0  0  0  0  0  0
   34.4789   39.7925   22.7772 N   0  0  0  0  0  0  0  0  0  0  0  0
   34.3290   33.7761   21.0235 O   0  0  0  0  0  0  0  0  0  0  0  0
   34.2121   35.6181   22.3415 N   0  0  0  0  0  0  0  0  0  0  0  0
   33.9306   37.6499   23.6560 N   0  0  0  0  0  0  0  0  0  0  0  0
   33.6717   39.5652   24.9268 N   0  0  0  0  0  0  0  0  0  0  0  0
   35.1939   35.7469   20.0596 C   0  0  0  0  0  0  0  0  0  0  0  0
   36.7445   33.8221   16.5753 C   0  0  0  0  0  0  0  0  0  0  0  0
   36.8299   35.2183   16.7031 C   0  0  0  0  0  0  0  0  0  0  0  0
   36.3201   35.8511   17.8486 C   0  0  0  0  0  0  0  0  0  0  0  0
   35.7249   35.0878   18.8664 C   0  0  0  0  0  0  0  0  0  0  0  0
   35.6395   33.6916   18.7387 C   0  0  0  0  0  0  0  0  0  0  0  0
   36.1494   33.0588   17.5931 C   0  0  0  0  0  0  0  0  0  0  0  0
   36.4252   37.5707   18.0060 Cl  0  0  0  0  0  0  0  0  0  0  0  0
   31.2405   38.3633   25.3084 H   0  0  0  0  0  0  0  0  0  0  0  0
   31.2759   39.9926   26.0639 H   0  0  0  0  0  0  0  0  0  0  0  0
   29.9979   38.4304   27.4873 H   0  0  0  0  0  0  0  0  0  0  0  0
   31.3913   37.2976   27.5322 H   0  0  0  0  0  0  0  0  0  0  0  0
   33.3543   37.9224   28.7161 H   0  0  0  0  0  0  0  0  0  0  0  0
   33.4045   39.5129   29.5494 H   0  0  0  0  0  0  0  0  0  0  0  0
   33.4222   40.6831   27.3715 H   0  0  0  0  0  0  0  0  0  0  0  0
   34.7743   39.5030   27.4494 H   0  0  0  0  0  0  0  0  0  0  0  0
   33.4820   37.8789   26.1529 H   0  0  0  0  0  0  0  0  0  0  0  0
   35.6573   37.7228   19.4305 H   0  0  0  0  0  0  0  0  0  0  0  0
   35.1976   39.8294   20.8033 H   0  0  0  0  0  0  0  0  0  0  0  0
   33.4566   35.4988   24.3101 H   0  0  0  0  0  0  0  0  0  0  0  0
   32.7402   34.3349   23.1446 H   0  0  0  0  0  0  0  0  0  0  0  0
   34.4045   34.0728   23.7675 H   0  0  0  0  0  0  0  0  0  0  0  0
   34.5258   40.7827   22.9084 H   0  0  0  0  0  0  0  0  0  0  0  0
   37.1364   33.3355   15.6944 H   0  0  0  0  0  0  0  0  0  0  0  0
   37.2876   35.8052   15.9205 H   0  0  0  0  0  0  0  0  0  0  0  0
   35.1818   33.1047   19.5213 H   0  0  0  0  0  0  0  0  0  0  0  0
   36.0839   31.9853   17.4949 H   0  0  0  0  0  0  0  0  0  0  0  0
  1  2  1  0  0  0  0
  1  8  1  0  0  0  0
  2  5  1  0  0  0  0
  3  4  1  0  0  0  0
  3  5  1  0  0  0  0
  4  8  1  0  0  0  0
  6 15  2  0  0  0  0
  6 16  1  0  0  0  0
  6 19  1  0  0  0  0
  7 14  1  0  0  0  0
  7 17  1  0  0  0  0
  7 18  2  0  0  0  0
  8 18  1  0  0  0  0
  9 10  1  0  0  0  0
  9 11  1  0  0  0  0
  9 12  2  0  0  0  0
 10 19  2  0  0  0  0
 11 16  1  0  0  0  0
 11 17  2  0  0  0  0
 12 14  1  0  0  0  0
 13 16  1  0  0  0  0
 19 23  1  0  0  0  0
 20 21  2  0  0  0  0
 20 25  1  0  0  0  0
 21 22  1  0  0  0  0
 22 23  2  0  0  0  0
 22 26  1  0  0  0  0
 23 24  1  0  0  0  0
 24 25  2  0  0  0  0
  1 27  1  0  0  0  0
  1 28  1  0  0  0  0
  2 29  1  0  0  0  0
  2 30  1  0  0  0  0
  3 31  1  0  0  0  0
  3 32  1  0  0  0  0
  4 33  1  0  0  0  0
  4 34  1  0  0  0  0
  8 35  1  0  0  0  0
 10 36  1  0  0  0  0
 12 37  1  0  0  0  0
 13 38  1  0  0  0  0
 13 39  1  0  0  0  0
 13 40  1  0  0  0  0
 14 41  1  0  0  0  0
 20 42  1  0  0  0  0
 21 43  1  0  0  0  0
 24 44  1  0  0  0  0
 25 45  1  0  0  0  0
M  END
> <r_user_dG.exp>
-10.462

$$$$
p38a_2c
  -OEChem-05192314073D
 Structure written by MMmdl.
 45 48  0     0  0  0  0  0  0999 V2000
   31.6235   38.9529   26.1544 C   0  0  0  0  0  0  0  0  0  0  0  0
   31.0952   38.3551   27.4684 C   0  0  0  0  0  0  0  0  0  0  0  0
   33.0541   38.9788   28.6539 C   0  0  0  0  0  0  0  0  0  0  0  0
   33.6809   39.6144   27.4031 C   0  0  0  0  0  0  0  0  0  0  0  0
   31.6350   39.0631   28.5784 O   0  0  0  0  0  0  0  0  0  0  0  0
   34.5448   34.9770   21.1828 C   0  0  0  0  0  0  0  0  0  0  0  0
   34.0445   38.9756   23.7378 C   0  0  0  0  0  0  0  0  0  0  0  0
   33.1562   38.9294   26.1332 C   0  0  0  0  0  0  0  0  0  0  0  0
   34.8025   37.8108   21.4407 C   0  0  0  0  0  0  0  0  0  0  0  0
   35.2536   37.1252   20.2344 C   0  0  0  0  0  0  0  0  0  0  0  0
   34.3067   37.0366   22.5109 C   0  0  0  0  0  0  0  0  0  0  0  0
   34.8522   39.2088   21.6169 C   0  0  0  0  0  0  0  0  0  0  0  0
   33.6690   34.8315   23.4618 C   0  0  0  0  0  0  0  0  0  0  0  0
   34.4789   39.7925   22.7772 N   0  0  0  0  0  0  0  0  0  0  0  0
   34.3290   33.7761   21.0235 O   0  0  0  0  0  0  0  0  0  0  0  0
   34.2121   35.6181   22.3415 N   0  0  0  0  0  0  0  0  0  0  0  0
   33.9306   37.6499   23.6560 N   0  0  0  0  0  0  0  0  0  0  0  0
   33.6717   39.5652   24.9268 N   0  0  0  0  0  0  0  0  0  0  0  0
   35.1939   35.7469   20.0596 C   0  0  0  0  0  0  0  0  0  0  0  0
   36.7445   33.8221   16.5753 C   0  0  0  0  0  0  0  0  0  0  0  0
   36.8299   35.2183   16.7031 C   0  0  0  0  0  0  0  0  0  0  0  0
   36.3201   35.8511   17.8486 C   0  0  0  0  0  0  0  0  0  0  0  0
   35.7249   35.0878   18.8664 C   0  0  0  0  0  0  0  0  0  0  0  0
   35.6395   33.6916   18.7387 C   0  0  0  0  0  0  0  0  0  0  0  0
   36.1494   33.0588   17.5931 C   0  0  0  0  0  0  0  0  0  0  0  0
   36.4252   37.5707   18.0060 Cl  0  0  0  0  0  0  0  0  0  0  0  0
   31.2405   38.3633   25.3084 H   0  0  0  0  0  0  0  0  0  0  0  0
   31.2759   39.9926   26.0639 H   0  0  0  0  0  0  0  0  0  0  0  0
   29.9979   38.4304   27.4873 H   0  0  0  0  0  0  0  0  0  0  0  0
   31.3913   37.2976   27.5322 H   0  0  0  0  0  0  0  0  0  0  0  0
   33.3543   37.9224   28.7161 H   0  0  0  0  0  0  0  0  0  0  0  0
   33.4045   39.5129   29.5494 H   0  0  0  0  0  0  0  0  0  0  0  0
   33.4222   40.6831   27.3715 H   0  0  0  0  0  0  0  0  0  0  0  0
   34.7743   39.5030   27.4494 H   0  0  0  0  0  0  0  0  0  0  0  0
   33.4820   37.8789   26.1529 H   0  0  0  0  0  0  0  0  0  0  0  0
   35.6573   37.7228   19.4305 H   0  0  0  0  0  0  0  0  0  0  0  0
   35.1976   39.8294   20.8033 H   0  0  0  0  0  0  0  0  0  0  0  0
   33.4566   35.4988   24.3101 H   0  0  0  0  0  0  0  0  0  0  0  0
   32.7402   34.3349   23.1446 H   0  0  0  0  0  0  0  0  0  0  0  0
   34.4045   34.0728   23.7675 H   0  0  0  0  0  0  0  0  0  0  0  0
   34.6268   33.5121   20.1609 H   0  0  0  0  0  0  0  0  0  0  0  0
   37.1364   33.3355   15.6944 H   0  0  0  0  0  0  0  0  0  0  0  0
   37.2876   35.8052   15.9205 H   0  0  0  0  0  0  0  0  0  0  0  0
   35.1818   33.1047   19.5213 H   0  0  0  0  0  0  0  0  0  0  0  0
   36.0839   31.9853   17.4949 H   0  0  0  0  0  0  0  0  0  0  0  0
  1  2  1  0  0  0  0
  1  8  1  0  0  0  0
  2  5  1  0  0  0  0
  3  4  1  0  0  0  0
  3  5  1  0  0  0  0
  4  8  1  0  0  0  0
  6 15  1  0  0  0  0
  6 16  1  0  0  0  0
  6 19  2  0  0  0  0
  7 14  1  0  0  0  0
  7 17  1  0  0  0  0
  7 18  2  0  0  0  0
  8 18  1  0  0  0  0
  9 10  2  0  0  0  0
  9 11  1  0  0  0  0
  9 12  1  0  0  0  0
 10 19  1  0  0  0  0
 11 16  1  0  0  0  0
 11 17  2  0  0  0  0
 12 14  2  0  0  0  0
 13 16  1  0  0  0  0
 19 23  1  0  0  0  0
 20 21  2  0  0  0  0
 20 25  1  0  0  0  0
 21 22  1  0  0  0  0
 22 23  2  0  0  0  0
 22 26  1  0  0  0  0
 23 24  1  0  0  0  0
 24 25  2  0  0  0  0
  1 27  1  0  0  0  0
  1 28  1  0  0  0  0
  2 29  1  0  0  0  0
  2 30  1  0  0  0  0
  3 31  1  0  0  0  0
  3 32  1  0  0  0  0
  4 33  1  0  0  0  0
  4 34  1  0  0  0  0
  8 35  1  0  0  0  0
 10 36  1  0  0  0  0
 12 37  1  0  0  0  0
 13 38  1  0  0  0  0
 13 39  1  0  0  0  0
 13 40  1  0  0  0  0
 15 41  1  0  0  0  0
 20 42  1  0  0  0  0
 21 43  1  0  0  0  0
 24 44  1  0  0  0  0
 25 45  1  0  0  0  0
M  END
> <r_user_dG.exp>
-10.462

$$$$
p38a_2c
  -OEChem-05192314073D
 Structure written by MMmdl.
 45 48  0     1  0  0  0  0  0999 V2000
   31.6235   38.9529   26.1544 C   0  0  0  0  0  0  0  0  0  0  0  0
   31.0952   38.3551   27.4684 C   0  0  0  0  0  0  0  0  0  0  0  0
   33.0541   38.9788   28.6539 C   0  0  0  0  0  0  0  0  0  0  0  0
   33.6809   39.6144   27.4031 C   0  0  0  0  0  0  0  0  0  0  0  0
   31.6350   39.0631   28.5784 O   0  0  0  0  0  0  0  0  0  0  0  0
   34.5448   34.9770   21.1828 C   0  0  0  0  0  0  0  0  0  0  0  0
   34.0445   38.9756   23.7378 C   0  0  0  0  0  0  0  0  0  0  0  0
   33.1562   38.9294   26.1332 C   0  0  0  0  0  0  0  0  0  0  0  0
   34.8025   37.8108   21.4407 C   0  0  3  0  0  0  0  0  0  0  0  0
   35.2536   37.1252   20.2344 C   0  0  0  0  0  0  0  0  0  0  0  0
   34.3067   37.0366   22.5109 C   0  0  0  0  0  0  0  0  0  0  0  0
   34.8522   39.2088   21.6169 C   0  0  0  0  0  0  0  0  0  0  0  0
   33.6690   34.8315   23.4618 C   0  0  0  0  0  0  0  0  0  0  0  0
   34.4789   39.7925   22.7772 N   0  0  0  0  0  0  0  0  0  0  0  0
   34.3290   33.7761   21.0235 O   0  0  0  0  0  0  0  0  0  0  0  0
   34.2121   35.6181   22.3415 N   0  0  0  0  0  0  0  0  0  0  0  0
   33.9306   37.6499   23.6560 N   0  0  0  0  0  0  0  0  0  0  0  0
   33.6717   39.5652   24.9268 N   0  0  0  0  0  0  0  0  0  0  0  0
   35.1939   35.7469   20.0596 C   0  0  0  0  0  0  0  0  0  0  0  0
   36.7445   33.8221   16.5753 C   0  0  0  0  0  0  0  0  0  0  0  0
   36.8299   35.2183   16.7031 C   0  0  0  0  0  0  0  0  0  0  0  0
   36.3201   35.8511   17.8486 C   0  0  0  0  0  0  0  0  0  0  0  0
   35.7249   35.0878   18.8664 C   0  0  0  0  0  0  0  0  0  0  0  0
   35.6395   33.6916   18.7387 C   0  0  0  0  0  0  0  0  0  0  0  0
   36.1494   33.0588   17.5931 C   0  0  0  0  0  0  0  0  0  0  0  0
   36.4252   37.5707   18.0060 Cl  0  0  0  0  0  0  0  0  0  0  0  0
   31.2405   38.3633   25.3084 H   0  0  0  0  0  0  0  0  0  0  0  0
   31.2759   39.9926   26.0639 H   0  0  0  0  0  0  0  0  0  0  0  0
   29.9979   38.4304   27.4873 H   0  0  0  0  0  0  0  0  0  0  0  0
   31.3913   37.2976   27.5322 H   0  0  0  0  0  0  0  0  0  0  0  0
   33.3543   37.9224   28.7161 H   0  0  0  0  0  0  0  0  0  0  0  0
   33.4045   39.5129   29.5494 H   0  0  0  0  0  0  0  0  0  0  0  0
   33.4222   40.6831   27.3715 H   0  0  0  0  0  0  0  0  0  0  0  0
   34.7743   39.5030   27.4494 H   0  0  0  0  0  0  0  0  0  0  0  0
   33.4820   37.8789   26.1529 H   0  0  0  0  0  0  0  0  0  0  0  0
   33.7886   37.8932   21.0222 H   0  0  0  0  0  0  0  0  0  0  0  0
   35.6573   37.7228   19.4305 H   0  0  0  0  0  0  0  0  0  0  0  0
   35.1976   39.8294   20.8033 H   0  0  0  0  0  0  0  0  0  0  0  0
   33.4566   35.4988   24.3101 H   0  0  0  0  0  0  0  0  0  0  0  0
   32.7402   34.3349   23.1446 H   0  0  0  0  0  0  0  0  0  0  0  0
   34.4045   34.0728   23.7675 H   0  0  0  0  0  0  0  0  0  0  0  0
   37.1364   33.3355   15.6944 H   0  0  0  0  0  0  0  0  0  0  0  0
   37.2876   35.8052   15.9205 H   0  0  0  0  0  0  0  0  0  0  0  0
   35.1818   33.1047   19.5213 H   0  0  0  0  0  0  0  0  0  0  0  0
   36.0839   31.9853   17.4949 H   0  0  0  0  0  0  0  0  0  0  0  0
  1  2  1  0  0  0  0
  1  8  1  0  0  0  0
  2  5  1  0  0  0  0
  3  4  1  0  0  0  0
  3  5  1  0  0  0  0
  4  8  1  0  0  0  0
  6 15  2  0  0  0  0
  6 16  1  0  0  0  0
  6 19  1  0  0  0  0
  7 14  1  0  0  0  0
  7 17  1  0  0  0  0
  7 18  2  0  0  0  0
  8 18  1  0  0  0  0
  9 10  1  0  0  0  0
  9 11  1  0  0  0  0
  9 12  1  0  0  0  0
 10 19  2  0  0  0  0
 11 16  1  0  0  0  0
 11 17  2  0  0  0  0
 12 14  2  0  0  0  0
 13 16  1  0  0  0  0
 19 23  1  0  0  0  0
 20 21  2  0  0  0  0
 20 25  1  0  0  0  0
 21 22  1  0  0  0  0
 22 23  2  0  0  0  0
 22 26  1  0  0  0  0
 23 24  1  0  0  0  0
 24 25  2  0  0  0  0
  1 27  1  0  0  0  0
  1 28  1  0  0  0  0
  2 29  1  0  0  0  0
  2 30  1  0  0  0  0
  3 31  1  0  0  0  0
  3 32  1  0  0  0  0
  4 33  1  0  0  0  0
  4 34  1  0  0  0  0
  8 35  1  0  0  0  0
  9 36  1  0  0  0  0
 10 37  1  0  0  0  0
 12 38  1  0  0  0  0
 13 39  1  0  0  0  0
 13 40  1  0  0  0  0
 13 41  1  0  0  0  0
 20 42  1  0  0  0  0
 21 43  1  0  0  0  0
 24 44  1  0  0  0  0
 25 45  1  0  0  0  0
M  END
> <r_user_dG.exp>
-10.462

$$$$
p38a_2c
  -OEChem-05192314073D
 Structure written by MMmdl.
 45 48  0     1  0  0  0  0  0999 V2000
   31.6235   38.9529   26.1544 C   0  0  0  0  0  0  0  0  0  0  0  0
   31.0952   38.3551   27.4684 C   0  0  0  0  0  0  0  0  0  0  0  0
   33.0541   38.9788   28.6539 C   0  0  0  0  0  0  0  0  0  0  0  0
   33.6809   39.6144   27.4031 C   0  0  0  0  0  0  0  0  0  0  0  0
   31.6350   39.0631   28.5784 O   0  0  0  0  0  0  0  0  0  0  0  0
   34.5448   34.9770   21.1828 C   0  0  0  0  0  0  0  0  0  0  0  0
   34.0445   38.9756   23.7378 C   0  0  0  0  0  0  0  0  0  0  0  0
   33.1562   38.9294   26.1332 C   0  0  0  0  0  0  0  0  0  0  0  0
   34.8025   37.8108   21.4407 C   0  0  0  0  0  0  0  0  0  0  0  0
   35.2536   37.1252   20.2344 C   0  0  0  0  0  0  0  0  0  0  0  0
   34.3067   37.0366   22.5109 C   0  0  0  0  0  0  0  0  0  0  0  0
   34.8522   39.2088   21.6169 C   0  0  0  0  0  0  0  0  0  0  0  0
   33.6690   34.8315   23.4618 C   0  0  0  0  0  0  0  0  0  0  0  0
   34.4789   39.7925   22.7772 N   0  0  0  0  0  0  0  0  0  0  0  0
   34.3290   33.7761   21.0235 O   0  0  0  0  0  0  0  0  0  0  0  0
   34.2121   35.6181   22.3415 N   0  0  0  0  0  0  0  0  0  0  0  0
   33.9306   37.6499   23.6560 N   0  0  0  0  0  0  0  0  0  0  0  0
   33.6717   39.5652   24.9268 N   0  0  0  0  0  0  0  0  0  0  0  0
   35.1939   35.7469   20.0596 C   0  0  3  0  0  0  0  0  0  0  0  0
   36.7445   33.8221   16.5753 C   0  0  0  0  0  0  0  0  0  0  0  0
   36.8299   35.2183   16.7031 C   0  0  0  0  0  0  0  0  0  0  0  0
   36.3201   35.8511   17.8486 C   0  0  0  0  0  0  0  0  0  0  0  0
   35.7249   35.0878   18.8664 C   0  0  0  0  0  0  0  0  0  0  0  0
   35.6395   33.6916   18.7387 C   0  0  0  0  0  0  0  0  0  0  0  0
   36.1494   33.0588   17.5931 C   0  0  0  0  0  0  0  0  0  0  0  0
   36.4252   37.5707   18.0060 Cl  0  0  0  0  0  0  0  0  0  0  0  0
   31.2405   38.3633   25.3084 H   0  0  0  0  0  0  0  0  0  0  0  0
   31.2759   39.9926   26.0639 H   0  0  0  0  0  0  0  0  0  0  0  0
   29.9979   38.4304   27.4873 H   0  0  0  0  0  0  0  0  0  0  0  0
   31.3913   37.2976   27.5322 H   0  0  0  0  0  0  0  0  0  0  0  0
   33.3543   37.9224   28.7161 H   0  0  0  0  0  0  0  0  0  0  0  0
   33.4045   39.5129   29.5494 H   0  0  0  0  0  0  0  0  0  0  0  0
   33.4222   40.6831   27.3715 H   0  0  0  0  0  0  0  0  0  0  0  0
   34.7743   39.5030   27.4494 H   0  0  0  0  0  0  0  0  0  0  0  0
   33.4820   37.8789   26.1529 H   0  0  0  0  0  0  0  0  0  0  0  0
   35.6573   37.7228   19.4305 H   0  0  0  0  0  0  0  0  0  0  0  0
   35.1976   39.8294   20.8033 H   0  0  0  0  0  0  0  0  0  0  0  0
   33.4566   35.4988   24.3101 H   0  0  0  0  0  0  0  0  0  0  0  0
   32.7402   34.3349   23.1446 H   0  0  0  0  0  0  0  0  0  0  0  0
   34.4045   34.0728   23.7675 H   0  0  0  0  0  0  0  0  0  0  0  0
   36.1716   35.6420   20.5527 H   0  0  0  0  0  0  0  0  0  0  0  0
   37.1364   33.3355   15.6944 H   0  0  0  0  0  0  0  0  0  0  0  0
   37.2876   35.8052   15.9205 H   0  0  0  0  0  0  0  0  0  0  0  0
   35.1818   33.1047   19.5213 H   0  0  0  0  0  0  0  0  0  0  0  0
   36.0839   31.9853   17.4949 H   0  0  0  0  0  0  0  0  0  0  0  0
  1  2  1  0  0  0  0
  1  8  1  0  0  0  0
  2  5  1  0  0  0  0
  3  4  1  0  0  0  0
  3  5  1  0  0  0  0
  4  8  1  0  0  0  0
  6 15  2  0  0  0  0
  6 16  1  0  0  0  0
  6 19  1  0  0  0  0
  7 14  1  0  0  0  0
  7 17  1  0  0  0  0
  7 18  2  0  0  0  0
  8 18  1  0  0  0  0
  9 10  2  0  0  0  0
  9 11  1  0  0  0  0
  9 12  1  0  0  0  0
 10 19  1  0  0  0  0
 11 16  1  0  0  0  0
 11 17  2  0  0  0  0
 12 14  2  0  0  0  0
 13 16  1  0  0  0  0
 19 23  1  0  0  0  0
 20 21  2  0  0  0  0
 20 25  1  0  0  0  0
 21 22  1  0  0  0  0
 22 23  2  0  0  0  0
 22 26  1  0  0  0  0
 23 24  1  0  0  0  0
 24 25  2  0  0  0  0
  1 27  1  0  0  0  0
  1 28  1  0  0  0  0
  2 29  1  0  0  0  0
  2 30  1  0  0  0  0
  3 31  1  0  0  0  0
  3 32  1  0  0  0  0
  4 33  1  0  0  0  0
  4 34  1  0  0  0  0
  8 35  1  0  0  0  0
 10 36  1  0  0  0  0
 12 37  1  0  0  0  0
 13 38  1  0  0  0  0
 13 39  1  0  0  0  0
 13 40  1  0  0  0  0
 19 41  1  0  0  0  0
 20 42  1  0  0  0  0
 21 43  1  0  0  0  0
 24 44  1  0  0  0  0
 25 45  1  0  0  0  0
M  END
> <r_user_dG.exp>
-10.462

$$$$
p38a_2c
  -OEChem-05192314073D
 Structure written by MMmdl.
 45 48  0     1  0  0  0  0  0999 V2000
   31.6235   38.9529   26.1544 C   0  0  0  0  0  0  0  0  0  0  0  0
   31.0952   38.3551   27.4684 C   0  0  0  0  0  0  0  0  0  0  0  0
   33.0541   38.9788   28.6539 C   0  0  0  0  0  0  0  0  0  0  0  0
   33.6809   39.6144   27.4031 C   0  0  0  0  0  0  0  0  0  0  0  0
   31.6350   39.0631   28.5784 O   0  0  0  0  0  0  0  0  0  0  0  0
   34.5448   34.9770   21.1828 C   0  0  0  0  0  0  0  0  0  0  0  0
   34.0445   38.9756   23.7378 C   0  0  0  0  0  0  0  0  0  0  0  0
   33.1562   38.9294   26.1332 C   0  0  0  0  0  0  0  0  0  0  0  0
   34.8025   37.8108   21.4407 C   0  0  0  0  0  0  0  0  0  0  0  0
   35.2536   37.1252   20.2344 C   0  0  0  0  0  0  0  0  0  0  0  0
   34.3067   37.0366   22.5109 C   0  0  0  0  0  0  0  0  0  0  0  0
   34.8522   39.2088   21.6169 C   0  0  0  0  0  0  0  0  0  0  0  0
   33.6690   34.8315   23.4618 C   0  0  0  0  0  0  0  0  0  0  0  0
   34.4789   39.7925   22.7772 N   0  0  0  0  0  0  0  0  0  0  0  0
   34.3290   33.7761   21.0235 O   0  0  0  0  0  0  0  0  0  0  0  0
   34.2121   35.6181   22.3415 N   0  0  0  0  0  0  0  0  0  0  0  0
   33.9306   37.6499   23.6560 N   0  0  0  0  0  0  0  0  0  0  0  0
   33.6717   39.5652   24.9268 N   0  0  0  0  0  0  0  0  0  0  0  0
   35.1939   35.7469   20.0596 C   0  0  0  0  0  0  0  0  0  0  0  0
   36.7445   33.8221   16.5753 C   0  0  0  0  0  0  0  0  0  0  0  0
   36.8299   35.2183   16.7031 C   0  0  0  0  0  0  0  0  0  0  0  0
   36.3201   35.8511   17.8486 C   0  0  3  0  0  0  0  0  0  0  0  0
   35.7249   35.0878   18.8664 C   0  0  0  0  0  0  0  0  0  0  0  0
   35.6395   33.6916   18.7387 C   0  0  0  0  0  0  0  0  0  0  0  0
   36.1494   33.0588   17.5931 C   0  0  0  0  0  0  0  0  0  0  0  0
   36.4252   37.5707   18.0060 Cl  0  0  0  0  0  0  0  0  0  0  0  0
   31.2405   38.3633   25.3084 H   0  0  0  0  0  0  0  0  0  0  0  0
   31.2759   39.9926   26.0639 H   0  0  0  0  0  0  0  0  0  0  0  0
   29.9979   38.4304   27.4873 H   0  0  0  0  0  0  0  0  0  0  0  0
   31.3913   37.2976   27.5322 H   0  0  0  0  0  0  0  0  0  0  0  0
   33.3543   37.9224   28.7161 H   0  0  0  0  0  0  0  0  0  0  0  0
   33.4045   39.5129   29.5494 H   0  0  0  0  0  0  0  0  0  0  0  0
   33.4222   40.6831   27.3715 H   0  0  0  0  0  0  0  0  0  0  0  0
   34.7743   39.5030   27.4494 H   0  0  0  0  0  0  0  0  0  0  0  0
   33.4820   37.8789   26.1529 H   0  0  0  0  0  0  0  0  0  0  0  0
   35.6573   37.7228   19.4305 H   0  0  0  0  0  0  0  0  0  0  0  0
   35.1976   39.8294   20.8033 H   0  0  0  0  0  0  0  0  0  0  0  0
   33.4566   35.4988   24.3101 H   0  0  0  0  0  0  0  0  0  0  0  0
   32.7402   34.3349   23.1446 H   0  0  0  0  0  0  0  0  0  0  0  0
   34.4045   34.0728   23.7675 H   0  0  0  0  0  0  0  0  0  0  0  0
   37.1364   33.3355   15.6944 H   0  0  0  0  0  0  0  0  0  0  0  0
   37.2876   35.8052   15.9205 H   0  0  0  0  0  0  0  0  0  0  0  0
   37.2978   35.7462   18.3417 H   0  0  0  0  0  0  0  0  0  0  0  0
   35.1818   33.1047   19.5213 H   0  0  0  0  0  0  0  0  0  0  0  0
   36.0839   31.9853   17.4949 H   0  0  0  0  0  0  0  0  0  0  0  0
  1  2  1  0  0  0  0
  1  8  1  0  0  0  0
  2  5  1  0  0  0  0
  3  4  1  0  0  0  0
  3  5  1  0  0  0  0
  4  8  1  0  0  0  0
  6 15  2  0  0  0  0
  6 16  1  0  0  0  0
  6 19  1  0  0  0  0
  7 14  1  0  0  0  0
  7 17  1  0  0  0  0
  7 18  2  0  0  0  0
  8 18  1  0  0  0  0
  9 10  2  0  0  0  0
  9 11  1  0  0  0  0
  9 12  1  0  0  0  0
 10 19  1  0  0  0  0
 11 16  1  0  0  0  0
 11 17  2  0  0  0  0
 12 14  2  0  0  0  0
 13 16  1  0  0  0  0
 19 23  2  0  0  0  0
 20 21  2  0  0  0  0
 20 25  1  0  0  0  0
 21 22  1  0  0  0  0
 22 23  1  0  0  0  0
 22 26  1  0  0  0  0
 23 24  1  0  0  0  0
 24 25  2  0  0  0  0
  1 27  1  0  0  0  0
  1 28  1  0  0  0  0
  2 29  1  0  0  0  0
  2 30  1  0  0  0  0
  3 31  1  0  0  0  0
  3 32  1  0  0  0  0
  4 33  1  0  0  0  0
  4 34  1  0  0  0  0
  8 35  1  0  0  0  0
 10 36  1  0  0  0  0
 12 37  1  0  0  0  0
 13 38  1  0  0  0  0
 13 39  1  0  0  0  0
 13 40  1  0  0  0  0
 20 41  1  0  0  0  0
 21 42  1  0  0  0  0
 22 43  1  0  0  0  0
 24 44  1  0  0  0  0
 25 45  1  0  0  0  0
M  END
> <r_user_dG.exp>
-10.462

$$$$
p38a_2c
  -OEChem-05192314073D
 Structure written by MMmdl.
 45 48  0     0  0  0  0  0  0999 V2000
   31.6235   38.9529   26.1544 C   0  0  0  0  0  0  0  0  0  0  0  0
   31.0952   38.3551   27.4684 C   0  0  0  0  0  0  0  0  0  0  0  0
   33.0541   38.9788   28.6539 C   0  0  0  0  0  0  0  0  0  0  0  0
   33.6809   39.6144   27.4031 C   0  0  0  0  0  0  0  0  0  0  0  0
   31.6350   39.0631   28.5784 O   0  0  0  0  0  0  0  0  0  0  0  0
   34.5448   34.9770   21.1828 C   0  0  0  0  0  0  0  0  0  0  0  0
   34.0445   38.9756   23.7378 C   0  0  0  0  0  0  0  0  0  0  0  0
   33.1562   38.9294   26.1332 C   0  0  0  0  0  0  0  0  0  0  0  0
   34.8025   37.8108   21.4407 C   0  0  0  0  0  0  0  0  0  0  0  0
   35.2536   37.1252   20.2344 C   0  0  0  0  0  0  0  0  0  0  0  0
   34.3067   37.0366   22.5109 C   0  0  0  0  0  0  0  0  0  0  0  0
   34.8522   39.2088   21.6169 C   0  0  0  0  0  0  0  0  0  0  0  0
   33.6690   34.8315   23.4618 C   0  0  0  0  0  0  0  0  0  0  0  0
   34.4789   39.7925   22.7772 N   0  0  0  0  0  0  0  0  0  0  0  0
   34.3290   33.7761   21.0235 O   0  0  0  0  0  0  0  0  0  0  0  0
   34.2121   35.6181   22.3415 N   0  0  0  0  0  0  0  0  0  0  0  0
   33.9306   37.6499   23.6560 N   0  0  0  0  0  0  0  0  0  0  0  0
   33.6717   39.5652   24.9268 N   0  0  0  0  0  0  0  0  0  0  0  0
   35.1939   35.7469   20.0596 C   0  0  0  0  0  0  0  0  0  0  0  0
   36.7445   33.8221   16.5753 C   0  0  0  0  0  0  0  0  0  0  0  0
   36.8299   35.2183   16.7031 C   0  0  0  0  0  0  0  0  0  0  0  0
   36.3201   35.8511   17.8486 C   0  0  0  0  0  0  0  0  0  0  0  0
   35.7249   35.0878   18.8664 C   0  0  0  0  0  0  0  0  0  0  0  0
   35.6395   33.6916   18.7387 C   0  0  0  0  0  0  0  0  0  0  0  0
   36.1494   33.0588   17.5931 C   0  0  0  0  0  0  0  0  0  0  0  0
   36.4252   37.5707   18.0060 Cl  0  0  0  0  0  0  0  0  0  0  0  0
   31.2405   38.3633   25.3084 H   0  0  0  0  0  0  0  0  0  0  0  0
   31.2759   39.9926   26.0639 H   0  0  0  0  0  0  0  0  0  0  0  0
   29.9979   38.4304   27.4873 H   0  0  0  0  0  0  0  0  0  0  0  0
   31.3913   37.2976   27.5322 H   0  0  0  0  0  0  0  0  0  0  0  0
   33.3543   37.9224   28.7161 H   0  0  0  0  0  0  0  0  0  0  0  0
   33.4045   39.5129   29.5494 H   0  0  0  0  0  0  0  0  0  0  0  0
   33.4222   40.6831   27.3715 H   0  0  0  0  0  0  0  0  0  0  0  0
   34.7743   39.5030   27.4494 H   0  0  0  0  0  0  0  0  0  0  0  0
   33.4820   37.8789   26.1529 H   0  0  0  0  0  0  0  0  0  0  0  0
   35.6573   37.7228   19.4305 H   0  0  0  0  0  0  0  0  0  0  0  0
   35.1976   39.8294   20.8033 H   0  0  0  0  0  0  0  0  0  0  0  0
   33.4566   35.4988   24.3101 H   0  0  0  0  0  0  0  0  0  0  0  0
   32.7402   34.3349   23.1446 H   0  0  0  0  0  0  0  0  0  0  0  0
   34.4045   34.0728   23.7675 H   0  0  0  0  0  0  0  0  0  0  0  0
   36.1767   33.6216   15.6548 H   0  0  0  0  0  0  0  0  0  0  0  0
   37.7733   33.4503   16.4598 H   0  0  0  0  0  0  0  0  0  0  0  0
   37.2876   35.8052   15.9205 H   0  0  0  0  0  0  0  0  0  0  0  0
   35.1818   33.1047   19.5213 H   0  0  0  0  0  0  0  0  0  0  0  0
   36.0839   31.9853   17.4949 H   0  0  0  0  0  0  0  0  0  0  0  0
  1  2  1  0  0  0  0
  1  8  1  0  0  0  0
  2  5  1  0  0  0  0
  3  4  1  0  0  0  0
  3  5  1  0  0  0  0
  4  8  1  0  0  0  0
  6 15  2  0  0  0  0
  6 16  1  0  0  0  0
  6 19  1  0  0  0  0
  7 14  1  0  0  0  0
  7 17  1  0  0  0  0
  7 18  2  0  0  0  0
  8 18  1  0  0  0  0
  9 10  2  0  0  0  0
  9 11  1  0  0  0  0
  9 12  1  0  0  0  0
 10 19  1  0  0  0  0
 11 16  1  0  0  0  0
 11 17  2  0  0  0  0
 12 14  2  0  0  0  0
 13 16  1  0  0  0  0
 19 23  2  0  0  0  0
 20 21  1  0  0  0  0
 20 25  1  0  0  0  0
 21 22  2  0  0  0  0
 22 23  1  0  0  0  0
 22 26  1  0  0  0  0
 23 24  1  0  0  0  0
 24 25  2  0  0  0  0
  1 27  1  0  0  0  0
  1 28  1  0  0  0  0
  2 29  1  0  0  0  0
  2 30  1  0  0  0  0
  3 31  1  0  0  0  0
  3 32  1  0  0  0  0
  4 33  1  0  0  0  0
  4 34  1  0  0  0  0
  8 35  1  0  0  0  0
 10 36  1  0  0  0  0
 12 37  1  0  0  0  0
 13 38  1  0  0  0  0
 13 39  1  0  0  0  0
 13 40  1  0  0  0  0
 20 41  1  0  0  0  0
 20 42  1  0  0  0  0
 21 43  1  0  0  0  0
 24 44  1  0  0  0  0
 25 45  1  0  0  0  0
M  END
> <r_user_dG.exp>
-10.462

$$$$
p38a_2c
  -OEChem-05192314073D
 Structure written by MMmdl.
 45 48  0     0  0  0  0  0  0999 V2000
   31.6235   38.9529   26.1544 C   0  0  0  0  0  0  0  0  0  0  0  0
   31.0952   38.3551   27.4684 C   0  0  0  0  0  0  0  0  0  0  0  0
   33.0541   38.9788   28.6539 C   0  0  0  0  0  0  0  0  0  0  0  0
   33.6809   39.6144   27.4031 C   0  0  0  0  0  0  0  0  0  0  0  0
   31.6350   39.0631   28.5784 O   0  0  0  0  0  0  0  0  0  0  0  0
   34.5448   34.9770   21.1828 C   0  0  0  0  0  0  0  0  0  0  0  0
   34.0445   38.9756   23.7378 C   0  0  0  0  0  0  0  0  0  0  0  0
   33.1562   38.9294   26.1332 C   0  0  0  0  0  0  0  0  0  0  0  0
   34.8025   37.8108   21.4407 C   0  0  0  0  0  0  0  0  0  0  0  0
   35.2536   37.1252   20.2344 C   0  0  0  0  0  0  0  0  0  0  0  0
   34.3067   37.0366   22.5109 C   0  0  0  0  0  0  0  0  0  0  0  0
   34.8522   39.2088   21.6169 C   0  0  0  0  0  0  0  0  0  0  0  0
   33.6690   34.8315   23.4618 C   0  0  0  0  0  0  0  0  0  0  0  0
   34.4789   39.7925   22.7772 N   0  0  0  0  0  0  0  0  0  0  0  0
   34.3290   33.7761   21.0235 O   0  0  0  0  0  0  0  0  0  0  0  0
   34.2121   35.6181   22.3415 N   0  0  0  0  0  0  0  0  0  0  0  0
   33.9306   37.6499   23.6560 N   0  0  0  0  0  0  0  0  0  0  0  0
   33.6717   39.5652   24.9268 N   0  0  0  0  0  0  0  0  0  0  0  0
   35.1939   35.7469   20.0596 C   0  0  0  0  0  0  0  0  0  0  0  0
   36.7445   33.8221   16.5753 C   0  0  0  0  0  0  0  0  0  0  0  0
   36.8299   35.2183   16.7031 C   0  0  0  0  0  0  0  0  0  0  0  0
   36.3201   35.8511   17.8486 C   0  0  0  0  0  0  0  0  0  0  0  0
   35.7249   35.0878   18.8664 C   0  0  0  0  0  0  0  0  0  0  0  0
   35.6395   33.6916   18.7387 C   0  0  0  0  0  0  0  0  0  0  0  0
   36.1494   33.0588   17.5931 C   0  0  0  0  0  0  0  0  0  0  0  0
   36.4252   37.5707   18.0060 Cl  0  0  0  0  0  0  0  0  0  0  0  0
   31.2405   38.3633   25.3084 H   0  0  0  0  0  0  0  0  0  0  0  0
   31.2759   39.9926   26.0639 H   0  0  0  0  0  0  0  0  0  0  0  0
   29.9979   38.4304   27.4873 H   0  0  0  0  0  0  0  0  0  0  0  0
   31.3913   37.2976   27.5322 H   0  0  0  0  0  0  0  0  0  0  0  0
   33.3543   37.9224   28.7161 H   0  0  0  0  0  0  0  0  0  0  0  0
   33.4045   39.5129   29.5494 H   0  0  0  0  0  0  0  0  0  0  0  0
   33.4222   40.6831   27.3715 H   0  0  0  0  0  0  0  0  0  0  0  0
   34.7743   39.5030   27.4494 H   0  0  0  0  0  0  0  0  0  0  0  0
   33.4820   37.8789   26.1529 H   0  0  0  0  0  0  0  0  0  0  0  0
   35.6573   37.7228   19.4305 H   0  0  0  0  0  0  0  0  0  0  0  0
   35.1976   39.8294   20.8033 H   0  0  0  0  0  0  0  0  0  0  0  0
   33.4566   35.4988   24.3101 H   0  0  0  0  0  0  0  0  0  0  0  0
   32.7402   34.3349   23.1446 H   0  0  0  0  0  0  0  0  0  0  0  0
   34.4045   34.0728   23.7675 H   0  0  0  0  0  0  0  0  0  0  0  0
   37.1364   33.3355   15.6944 H   0  0  0  0  0  0  0  0  0  0  0  0
   37.2876   35.8052   15.9205 H   0  0  0  0  0  0  0  0  0  0  0  0
   36.1686   33.2608   19.6015 H   0  0  0  0  0  0  0  0  0  0  0  0
   34.5721   33.4321   18.7963 H   0  0  0  0  0  0  0  0  0  0  0  0
   36.0839   31.9853   17.4949 H   0  0  0  0  0  0  0  0  0  0  0  0
  1  2  1  0  0  0  0
  1  8  1  0  0  0  0
  2  5  1  0  0  0  0
  3  4  1  0  0  0  0
  3  5  1  0  0  0  0
  4  8  1  0  0  0  0
  6 15  2  0  0  0  0
  6 16  1  0  0  0  0
  6 19  1  0  0  0  0
  7 14  1  0  0  0  0
  7 17  1  0  0  0  0
  7 18  2  0  0  0  0
  8 18  1  0  0  0  0
  9 10  2  0  0  0  0
  9 11  1  0  0  0  0
  9 12  1  0  0  0  0
 10 19  1  0  0  0  0
 11 16  1  0  0  0  0
 11 17  2  0  0  0  0
 12 14  2  0  0  0  0
 13 16  1  0  0  0  0
 19 23  2  0  0  0  0
 20 21  1  0  0  0  0
 20 25  2  0  0  0  0
 21 22  2  0  0  0  0
 22 23  1  0  0  0  0
 22 26  1  0  0  0  0
 23 24  1  0  0  0  0
 24 25  1  0  0  0  0
  1 27  1  0  0  0  0
  1 28  1  0  0  0  0
  2 29  1  0  0  0  0
  2 30  1  0  0  0  0
  3 31  1  0  0  0  0
  3 32  1  0  0  0  0
  4 33  1  0  0  0  0
  4 34  1  0  0  0  0
  8 35  1  0  0  0  0
 10 36  1  0  0  0  0
 12 37  1  0  0  0  0
 13 38  1  0  0  0  0
 13 39  1  0  0  0  0
 13 40  1  0  0  0  0
 20 41  1  0  0  0  0
 21 42  1  0  0  0  0
 24 43  1  0  0  0  0
 24 44  1  0  0  0  0
 25 45  1  0  0  0  0
M  END
> <r_user_dG.exp>
-10.462

$$$$
