p38a_2ee
  -OEChem-05192314073D
 Structure written by MMmdl.
 52 55  0     0  0  0  0  0  0999 V2000
   38.2632   36.7144   17.0134 C   0  0  0  0  0  0  0  0  0  0  0  0
   34.5448   34.9770   21.1828 C   0  0  0  0  0  0  0  0  0  0  0  0
   37.5969   36.1886   18.1373 C   0  0  0  0  0  0  0  0  0  0  0  0
   34.0445   38.9756   23.7378 C   0  0  0  0  0  0  0  0  0  0  0  0
   34.8025   37.8108   21.4407 C   0  0  0  0  0  0  0  0  0  0  0  0
   35.2536   37.1252   20.2344 C   0  0  0  0  0  0  0  0  0  0  0  0
   37.6232   36.7427   15.7594 C   0  0  0  0  0  0  0  0  0  0  0  0
   36.3272   36.2163   15.6228 C   0  0  0  0  0  0  0  0  0  0  0  0
   35.6719   35.6684   16.7395 C   0  0  0  0  0  0  0  0  0  0  0  0
   34.3067   37.0366   22.5109 C   0  0  0  0  0  0  0  0  0  0  0  0
   34.8522   39.2088   21.6169 C   0  0  0  0  0  0  0  0  0  0  0  0
   35.1646   35.7815   20.1251 C   0  0  0  0  0  0  0  0  0  0  0  0
   36.2931   35.6640   18.0028 C   0  0  0  0  0  0  0  0  0  0  0  0
   33.6690   34.8315   23.4618 C   0  0  0  0  0  0  0  0  0  0  0  0
   38.1961   36.1968   19.3280 F   0  0  0  0  0  0  0  0  0  0  0  0
   35.6498   35.0616   19.0536 O   0  0  0  0  0  0  0  0  0  0  0  0
   34.4789   39.7925   22.7772 N   0  0  0  0  0  0  0  0  0  0  0  0
   34.3290   33.7761   21.0235 O   0  0  0  0  0  0  0  0  0  0  0  0
   34.2121   35.6181   22.3415 N   0  0  0  0  0  0  0  0  0  0  0  0
   33.9306   37.6499   23.6560 N   0  0  0  0  0  0  0  0  0  0  0  0
   33.6717   39.5652   24.9268 N   0  0  0  0  0  0  0  0  0  0  0  0
   38.2365   37.2743   14.7019 F   0  0  0  0  0  0  0  0  0  0  0  0
   32.3864   39.3434   28.5029 C   0  0  0  0  0  0  0  0  0  0  0  0
   32.8826   39.9949   27.2021 C   0  0  0  0  0  0  0  0  0  0  0  0
   33.1625   38.9326   26.1269 C   0  0  0  0  0  0  0  0  0  0  0  0
   34.1671   37.8864   26.6357 C   0  0  0  0  0  0  0  0  0  0  0  0
   33.6709   37.2349   27.9364 C   0  0  0  0  0  0  0  0  0  0  0  0
   33.3911   38.2971   29.0117 N   0  0  0  0  0  0  0  0  0  0  0  0
   34.0185   38.2191   30.2384 C   0  0  0  0  0  0  0  0  0  0  0  0
   34.7890   37.3195   30.4753 O   0  0  0  0  0  0  0  0  0  0  0  0
   33.7272   39.2812   31.2889 C   0  0  0  0  0  0  0  0  0  0  0  0
   39.2681   37.0971   17.1136 H   0  0  0  0  0  0  0  0  0  0  0  0
   35.6644   37.6998   19.4174 H   0  0  0  0  0  0  0  0  0  0  0  0
   35.8354   36.2327   14.6614 H   0  0  0  0  0  0  0  0  0  0  0  0
   34.6837   35.2474   16.6272 H   0  0  0  0  0  0  0  0  0  0  0  0
   35.1976   39.8294   20.8033 H   0  0  0  0  0  0  0  0  0  0  0  0
   33.4566   35.4988   24.3101 H   0  0  0  0  0  0  0  0  0  0  0  0
   32.7402   34.3349   23.1446 H   0  0  0  0  0  0  0  0  0  0  0  0
   34.4045   34.0728   23.7675 H   0  0  0  0  0  0  0  0  0  0  0  0
   34.4880   40.0570   25.2296 H   0  0  0  0  0  0  0  0  0  0  0  0
   32.2584   40.1220   29.2693 H   0  0  0  0  0  0  0  0  0  0  0  0
   31.4203   38.8526   28.3139 H   0  0  0  0  0  0  0  0  0  0  0  0
   32.1138   40.6886   26.8310 H   0  0  0  0  0  0  0  0  0  0  0  0
   33.8091   40.5507   27.4086 H   0  0  0  0  0  0  0  0  0  0  0  0
   32.2176   38.4189   25.8962 H   0  0  0  0  0  0  0  0  0  0  0  0
   34.2952   37.1078   25.8693 H   0  0  0  0  0  0  0  0  0  0  0  0
   35.1332   38.3772   26.8248 H   0  0  0  0  0  0  0  0  0  0  0  0
   32.7443   36.6792   27.7298 H   0  0  0  0  0  0  0  0  0  0  0  0
   34.4396   36.5411   28.3074 H   0  0  0  0  0  0  0  0  0  0  0  0
   34.3074   39.0668   32.1985 H   0  0  0  0  0  0  0  0  0  0  0  0
   34.0097   40.2700   30.8985 H   0  0  0  0  0  0  0  0  0  0  0  0
   32.6537   39.2747   31.5289 H   0  0  0  0  0  0  0  0  0  0  0  0
  1  3  2  0  0  0  0
  1  7  1  0  0  0  0
  2 12  1  0  0  0  0
  2 18  2  0  0  0  0
  2 19  1  0  0  0  0
  3 13  1  0  0  0  0
  3 15  1  0  0  0  0
  4 17  2  0  0  0  0
  4 20  1  0  0  0  0
  4 21  1  0  0  0  0
  5  6  1  0  0  0  0
  5 10  1  0  0  0  0
  5 11  2  0  0  0  0
  6 12  2  0  0  0  0
  7  8  2  0  0  0  0
  7 22  1  0  0  0  0
  8  9  1  0  0  0  0
  9 13  2  0  0  0  0
 10 19  1  0  0  0  0
 10 20  2  0  0  0  0
 11 17  1  0  0  0  0
 12 16  1  0  0  0  0
 13 16  1  0  0  0  0
 14 19  1  0  0  0  0
 21 25  1  0  0  0  0
 23 24  1  0  0  0  0
 23 28  1  0  0  0  0
 24 25  1  0  0  0  0
 25 26  1  0  0  0  0
 26 27  1  0  0  0  0
 27 28  1  0  0  0  0
 28 29  1  0  0  0  0
 29 30  2  0  0  0  0
 29 31  1  0  0  0  0
  1 32  1  0  0  0  0
  6 33  1  0  0  0  0
  8 34  1  0  0  0  0
  9 35  1  0  0  0  0
 11 36  1  0  0  0  0
 14 37  1  0  0  0  0
 14 38  1  0  0  0  0
 14 39  1  0  0  0  0
 21 40  1  0  0  0  0
 23 41  1  0  0  0  0
 23 42  1  0  0  0  0
 24 43  1  0  0  0  0
 24 44  1  0  0  0  0
 25 45  1  0  0  0  0
 26 46  1  0  0  0  0
 26 47  1  0  0  0  0
 27 48  1  0  0  0  0
 27 49  1  0  0  0  0
 31 50  1  0  0  0  0
 31 51  1  0  0  0  0
 31 52  1  0  0  0  0
M  END
> <r_user_dG.exp>
-12.264

$$$$
p38a_2ee
  -OEChem-05192314073D
 Structure written by MMmdl.
 52 55  0     0  0  0  0  0  0999 V2000
   38.2632   36.7144   17.0134 C   0  0  0  0  0  0  0  0  0  0  0  0
   34.5448   34.9770   21.1828 C   0  0  0  0  0  0  0  0  0  0  0  0
   37.5969   36.1886   18.1373 C   0  0  0  0  0  0  0  0  0  0  0  0
   34.0445   38.9756   23.7378 C   0  0  0  0  0  0  0  0  0  0  0  0
   34.8025   37.8108   21.4407 C   0  0  0  0  0  0  0  0  0  0  0  0
   35.2536   37.1252   20.2344 C   0  0  0  0  0  0  0  0  0  0  0  0
   37.6232   36.7427   15.7594 C   0  0  0  0  0  0  0  0  0  0  0  0
   36.3272   36.2163   15.6228 C   0  0  0  0  0  0  0  0  0  0  0  0
   35.6719   35.6684   16.7395 C   0  0  0  0  0  0  0  0  0  0  0  0
   34.3067   37.0366   22.5109 C   0  0  0  0  0  0  0  0  0  0  0  0
   34.8522   39.2088   21.6169 C   0  0  0  0  0  0  0  0  0  0  0  0
   35.1646   35.7815   20.1251 C   0  0  0  0  0  0  0  0  0  0  0  0
   36.2931   35.6640   18.0028 C   0  0  0  0  0  0  0  0  0  0  0  0
   33.6690   34.8315   23.4618 C   0  0  0  0  0  0  0  0  0  0  0  0
   38.1961   36.1968   19.3280 F   0  0  0  0  0  0  0  0  0  0  0  0
   35.6498   35.0616   19.0536 O   0  0  0  0  0  0  0  0  0  0  0  0
   34.4789   39.7925   22.7772 N   0  0  0  0  0  0  0  0  0  0  0  0
   34.3290   33.7761   21.0235 O   0  0  0  0  0  0  0  0  0  0  0  0
   34.2121   35.6181   22.3415 N   0  0  0  0  0  0  0  0  0  0  0  0
   33.9306   37.6499   23.6560 N   0  0  0  0  0  0  0  0  0  0  0  0
   33.6717   39.5652   24.9268 N   0  0  0  0  0  0  0  0  0  0  0  0
   38.2365   37.2743   14.7019 F   0  0  0  0  0  0  0  0  0  0  0  0
   32.3864   39.3434   28.5029 C   0  0  0  0  0  0  0  0  0  0  0  0
   32.8826   39.9949   27.2021 C   0  0  0  0  0  0  0  0  0  0  0  0
   33.1625   38.9326   26.1269 C   0  0  0  0  0  0  0  0  0  0  0  0
   34.1671   37.8864   26.6357 C   0  0  0  0  0  0  0  0  0  0  0  0
   33.6709   37.2349   27.9364 C   0  0  0  0  0  0  0  0  0  0  0  0
   33.3911   38.2971   29.0117 N   0  0  0  0  0  0  0  0  0  0  0  0
   34.0185   38.2191   30.2384 C   0  0  0  0  0  0  0  0  0  0  0  0
   34.7890   37.3195   30.4753 O   0  0  0  0  0  0  0  0  0  0  0  0
   33.7272   39.2812   31.2889 C   0  0  0  0  0  0  0  0  0  0  0  0
   39.2681   37.0971   17.1136 H   0  0  0  0  0  0  0  0  0  0  0  0
   35.6644   37.6998   19.4174 H   0  0  0  0  0  0  0  0  0  0  0  0
   35.8354   36.2327   14.6614 H   0  0  0  0  0  0  0  0  0  0  0  0
   34.6837   35.2474   16.6272 H   0  0  0  0  0  0  0  0  0  0  0  0
   35.1976   39.8294   20.8033 H   0  0  0  0  0  0  0  0  0  0  0  0
   33.4566   35.4988   24.3101 H   0  0  0  0  0  0  0  0  0  0  0  0
   32.7402   34.3349   23.1446 H   0  0  0  0  0  0  0  0  0  0  0  0
   34.4045   34.0728   23.7675 H   0  0  0  0  0  0  0  0  0  0  0  0
   33.5744   37.1199   24.4255 H   0  0  0  0  0  0  0  0  0  0  0  0
   32.2584   40.1220   29.2693 H   0  0  0  0  0  0  0  0  0  0  0  0
   31.4203   38.8526   28.3139 H   0  0  0  0  0  0  0  0  0  0  0  0
   32.1138   40.6886   26.8310 H   0  0  0  0  0  0  0  0  0  0  0  0
   33.8091   40.5507   27.4086 H   0  0  0  0  0  0  0  0  0  0  0  0
   32.2176   38.4189   25.8962 H   0  0  0  0  0  0  0  0  0  0  0  0
   34.2952   37.1078   25.8693 H   0  0  0  0  0  0  0  0  0  0  0  0
   35.1332   38.3772   26.8248 H   0  0  0  0  0  0  0  0  0  0  0  0
   32.7443   36.6792   27.7298 H   0  0  0  0  0  0  0  0  0  0  0  0
   34.4396   36.5411   28.3074 H   0  0  0  0  0  0  0  0  0  0  0  0
   34.3074   39.0668   32.1985 H   0  0  0  0  0  0  0  0  0  0  0  0
   34.0097   40.2700   30.8985 H   0  0  0  0  0  0  0  0  0  0  0  0
   32.6537   39.2747   31.5289 H   0  0  0  0  0  0  0  0  0  0  0  0
  1  3  2  0  0  0  0
  1  7  1  0  0  0  0
  2 12  1  0  0  0  0
  2 18  2  0  0  0  0
  2 19  1  0  0  0  0
  3 13  1  0  0  0  0
  3 15  1  0  0  0  0
  4 17  1  0  0  0  0
  4 20  1  0  0  0  0
  4 21  2  0  0  0  0
  5  6  1  0  0  0  0
  5 10  2  0  0  0  0
  5 11  1  0  0  0  0
  6 12  2  0  0  0  0
  7  8  2  0  0  0  0
  7 22  1  0  0  0  0
  8  9  1  0  0  0  0
  9 13  2  0  0  0  0
 10 19  1  0  0  0  0
 10 20  1  0  0  0  0
 11 17  2  0  0  0  0
 12 16  1  0  0  0  0
 13 16  1  0  0  0  0
 14 19  1  0  0  0  0
 21 25  1  0  0  0  0
 23 24  1  0  0  0  0
 23 28  1  0  0  0  0
 24 25  1  0  0  0  0
 25 26  1  0  0  0  0
 26 27  1  0  0  0  0
 27 28  1  0  0  0  0
 28 29  1  0  0  0  0
 29 30  2  0  0  0  0
 29 31  1  0  0  0  0
  1 32  1  0  0  0  0
  6 33  1  0  0  0  0
  8 34  1  0  0  0  0
  9 35  1  0  0  0  0
 11 36  1  0  0  0  0
 14 37  1  0  0  0  0
 14 38  1  0  0  0  0
 14 39  1  0  0  0  0
 20 40  1  0  0  0  0
 23 41  1  0  0  0  0
 23 42  1  0  0  0  0
 24 43  1  0  0  0  0
 24 44  1  0  0  0  0
 25 45  1  0  0  0  0
 26 46  1  0  0  0  0
 26 47  1  0  0  0  0
 27 48  1  0  0  0  0
 27 49  1  0  0  0  0
 31 50  1  0  0  0  0
 31 51  1  0  0  0  0
 31 52  1  0  0  0  0
M  END
> <r_user_dG.exp>
-12.264

$$$$
p38a_2ee
  -OEChem-05192314073D
 Structure written by MMmdl.
 52 55  0     0  0  0  0  0  0999 V2000
   38.2632   36.7144   17.0134 C   0  0  0  0  0  0  0  0  0  0  0  0
   34.5448   34.9770   21.1828 C   0  0  0  0  0  0  0  0  0  0  0  0
   37.5969   36.1886   18.1373 C   0  0  0  0  0  0  0  0  0  0  0  0
   34.0445   38.9756   23.7378 C   0  0  0  0  0  0  0  0  0  0  0  0
   34.8025   37.8108   21.4407 C   0  0  0  0  0  0  0  0  0  0  0  0
   35.2536   37.1252   20.2344 C   0  0  0  0  0  0  0  0  0  0  0  0
   37.6232   36.7427   15.7594 C   0  0  0  0  0  0  0  0  0  0  0  0
   36.3272   36.2163   15.6228 C   0  0  0  0  0  0  0  0  0  0  0  0
   35.6719   35.6684   16.7395 C   0  0  0  0  0  0  0  0  0  0  0  0
   34.3067   37.0366   22.5109 C   0  0  0  0  0  0  0  0  0  0  0  0
   34.8522   39.2088   21.6169 C   0  0  0  0  0  0  0  0  0  0  0  0
   35.1646   35.7815   20.1251 C   0  0  0  0  0  0  0  0  0  0  0  0
   36.2931   35.6640   18.0028 C   0  0  0  0  0  0  0  0  0  0  0  0
   33.6690   34.8315   23.4618 C   0  0  0  0  0  0  0  0  0  0  0  0
   38.1961   36.1968   19.3280 F   0  0  0  0  0  0  0  0  0  0  0  0
   35.6498   35.0616   19.0536 O   0  0  0  0  0  0  0  0  0  0  0  0
   34.4789   39.7925   22.7772 N   0  0  0  0  0  0  0  0  0  0  0  0
   34.3290   33.7761   21.0235 O   0  0  0  0  0  0  0  0  0  0  0  0
   34.2121   35.6181   22.3415 N   0  0  0  0  0  0  0  0  0  0  0  0
   33.9306   37.6499   23.6560 N   0  0  0  0  0  0  0  0  0  0  0  0
   33.6717   39.5652   24.9268 N   0  0  0  0  0  0  0  0  0  0  0  0
   38.2365   37.2743   14.7019 F   0  0  0  0  0  0  0  0  0  0  0  0
   32.3864   39.3434   28.5029 C   0  0  0  0  0  0  0  0  0  0  0  0
   32.8826   39.9949   27.2021 C   0  0  0  0  0  0  0  0  0  0  0  0
   33.1625   38.9326   26.1269 C   0  0  0  0  0  0  0  0  0  0  0  0
   34.1671   37.8864   26.6357 C   0  0  0  0  0  0  0  0  0  0  0  0
   33.6709   37.2349   27.9364 C   0  0  0  0  0  0  0  0  0  0  0  0
   33.3911   38.2971   29.0117 N   0  0  0  0  0  0  0  0  0  0  0  0
   34.0185   38.2191   30.2384 C   0  0  0  0  0  0  0  0  0  0  0  0
   34.7890   37.3195   30.4753 O   0  0  0  0  0  0  0  0  0  0  0  0
   33.7272   39.2812   31.2889 C   0  0  0  0  0  0  0  0  0  0  0  0
   39.2681   37.0971   17.1136 H   0  0  0  0  0  0  0  0  0  0  0  0
   35.6644   37.6998   19.4174 H   0  0  0  0  0  0  0  0  0  0  0  0
   35.8354   36.2327   14.6614 H   0  0  0  0  0  0  0  0  0  0  0  0
   34.6837   35.2474   16.6272 H   0  0  0  0  0  0  0  0  0  0  0  0
   35.1976   39.8294   20.8033 H   0  0  0  0  0  0  0  0  0  0  0  0
   33.4566   35.4988   24.3101 H   0  0  0  0  0  0  0  0  0  0  0  0
   32.7402   34.3349   23.1446 H   0  0  0  0  0  0  0  0  0  0  0  0
   34.4045   34.0728   23.7675 H   0  0  0  0  0  0  0  0  0  0  0  0
   34.5258   40.7827   22.9084 H   0  0  0  0  0  0  0  0  0  0  0  0
   32.2584   40.1220   29.2693 H   0  0  0  0  0  0  0  0  0  0  0  0
   31.4203   38.8526   28.3139 H   0  0  0  0  0  0  0  0  0  0  0  0
   32.1138   40.6886   26.8310 H   0  0  0  0  0  0  0  0  0  0  0  0
   33.8091   40.5507   27.4086 H   0  0  0  0  0  0  0  0  0  0  0  0
   32.2176   38.4189   25.8962 H   0  0  0  0  0  0  0  0  0  0  0  0
   34.2952   37.1078   25.8693 H   0  0  0  0  0  0  0  0  0  0  0  0
   35.1332   38.3772   26.8248 H   0  0  0  0  0  0  0  0  0  0  0  0
   32.7443   36.6792   27.7298 H   0  0  0  0  0  0  0  0  0  0  0  0
   34.4396   36.5411   28.3074 H   0  0  0  0  0  0  0  0  0  0  0  0
   34.3074   39.0668   32.1985 H   0  0  0  0  0  0  0  0  0  0  0  0
   34.0097   40.2700   30.8985 H   0  0  0  0  0  0  0  0  0  0  0  0
   32.6537   39.2747   31.5289 H   0  0  0  0  0  0  0  0  0  0  0  0
  1  3  2  0  0  0  0
  1  7  1  0  0  0  0
  2 12  1  0  0  0  0
  2 18  2  0  0  0  0
  2 19  1  0  0  0  0
  3 13  1  0  0  0  0
  3 15  1  0  0  0  0
  4 17  1  0  0  0  0
  4 20  1  0  0  0  0
  4 21  2  0  0  0  0
  5  6  1  0  0  0  0
  5 10  1  0  0  0  0
  5 11  2  0  0  0  0
  6 12  2  0  0  0  0
  7  8  2  0  0  0  0
  7 22  1  0  0  0  0
  8  9  1  0  0  0  0
  9 13  2  0  0  0  0
 10 19  1  0  0  0  0
 10 20  2  0  0  0  0
 11 17  1  0  0  0  0
 12 16  1  0  0  0  0
 13 16  1  0  0  0  0
 14 19  1  0  0  0  0
 21 25  1  0  0  0  0
 23 24  1  0  0  0  0
 23 28  1  0  0  0  0
 24 25  1  0  0  0  0
 25 26  1  0  0  0  0
 26 27  1  0  0  0  0
 27 28  1  0  0  0  0
 28 29  1  0  0  0  0
 29 30  2  0  0  0  0
 29 31  1  0  0  0  0
  1 32  1  0  0  0  0
  6 33  1  0  0  0  0
  8 34  1  0  0  0  0
  9 35  1  0  0  0  0
 11 36  1  0  0  0  0
 14 37  1  0  0  0  0
 14 38  1  0  0  0  0
 14 39  1  0  0  0  0
 17 40  1  0  0  0  0
 23 41  1  0  0  0  0
 23 42  1  0  0  0  0
 24 43  1  0  0  0  0
 24 44  1  0  0  0  0
 25 45  1  0  0  0  0
 26 46  1  0  0  0  0
 26 47  1  0  0  0  0
 27 48  1  0  0  0  0
 27 49  1  0  0  0  0
 31 50  1  0  0  0  0
 31 51  1  0  0  0  0
 31 52  1  0  0  0  0
M  END
> <r_user_dG.exp>
-12.264

$$$$
p38a_2ee
  -OEChem-05192314073D
 Structure written by MMmdl.
 52 55  0     0  0  0  0  0  0999 V2000
   38.2632   36.7144   17.0134 C   0  0  0  0  0  0  0  0  0  0  0  0
   34.5448   34.9770   21.1828 C   0  0  0  0  0  0  0  0  0  0  0  0
   37.5969   36.1886   18.1373 C   0  0  0  0  0  0  0  0  0  0  0  0
   34.0445   38.9756   23.7378 C   0  0  0  0  0  0  0  0  0  0  0  0
   34.8025   37.8108   21.4407 C   0  0  0  0  0  0  0  0  0  0  0  0
   35.2536   37.1252   20.2344 C   0  0  0  0  0  0  0  0  0  0  0  0
   37.6232   36.7427   15.7594 C   0  0  0  0  0  0  0  0  0  0  0  0
   36.3272   36.2163   15.6228 C   0  0  0  0  0  0  0  0  0  0  0  0
   35.6719   35.6684   16.7395 C   0  0  0  0  0  0  0  0  0  0  0  0
   34.3067   37.0366   22.5109 C   0  0  0  0  0  0  0  0  0  0  0  0
   34.8522   39.2088   21.6169 C   0  0  0  0  0  0  0  0  0  0  0  0
   35.1646   35.7815   20.1251 C   0  0  0  0  0  0  0  0  0  0  0  0
   36.2931   35.6640   18.0028 C   0  0  0  0  0  0  0  0  0  0  0  0
   33.6690   34.8315   23.4618 C   0  0  0  0  0  0  0  0  0  0  0  0
   38.1961   36.1968   19.3280 F   0  0  0  0  0  0  0  0  0  0  0  0
   35.6498   35.0616   19.0536 O   0  0  0  0  0  0  0  0  0  0  0  0
   34.4789   39.7925   22.7772 N   0  0  0  0  0  0  0  0  0  0  0  0
   34.3290   33.7761   21.0235 O   0  0  0  0  0  0  0  0  0  0  0  0
   34.2121   35.6181   22.3415 N   0  0  0  0  0  0  0  0  0  0  0  0
   33.9306   37.6499   23.6560 N   0  0  0  0  0  0  0  0  0  0  0  0
   33.6717   39.5652   24.9268 N   0  0  0  0  0  0  0  0  0  0  0  0
   38.2365   37.2743   14.7019 F   0  0  0  0  0  0  0  0  0  0  0  0
   32.3864   39.3434   28.5029 C   0  0  0  0  0  0  0  0  0  0  0  0
   32.8826   39.9949   27.2021 C   0  0  0  0  0  0  0  0  0  0  0  0
   33.1625   38.9326   26.1269 C   0  0  0  0  0  0  0  0  0  0  0  0
   34.1671   37.8864   26.6357 C   0  0  0  0  0  0  0  0  0  0  0  0
   33.6709   37.2349   27.9364 C   0  0  0  0  0  0  0  0  0  0  0  0
   33.3911   38.2971   29.0117 N   0  0  0  0  0  0  0  0  0  0  0  0
   34.0185   38.2191   30.2384 C   0  0  0  0  0  0  0  0  0  0  0  0
   34.7890   37.3195   30.4753 O   0  0  0  0  0  0  0  0  0  0  0  0
   33.7272   39.2812   31.2889 C   0  0  0  0  0  0  0  0  0  0  0  0
   39.2681   37.0971   17.1136 H   0  0  0  0  0  0  0  0  0  0  0  0
   35.6644   37.6998   19.4174 H   0  0  0  0  0  0  0  0  0  0  0  0
   35.8354   36.2327   14.6614 H   0  0  0  0  0  0  0  0  0  0  0  0
   34.6837   35.2474   16.6272 H   0  0  0  0  0  0  0  0  0  0  0  0
   35.1976   39.8294   20.8033 H   0  0  0  0  0  0  0  0  0  0  0  0
   33.4566   35.4988   24.3101 H   0  0  0  0  0  0  0  0  0  0  0  0
   32.7402   34.3349   23.1446 H   0  0  0  0  0  0  0  0  0  0  0  0
   34.4045   34.0728   23.7675 H   0  0  0  0  0  0  0  0  0  0  0  0
   33.9261   33.4197   21.8065 H   0  0  0  0  0  0  0  0  0  0  0  0
   32.2584   40.1220   29.2693 H   0  0  0  0  0  0  0  0  0  0  0  0
   31.4203   38.8526   28.3139 H   0  0  0  0  0  0  0  0  0  0  0  0
   32.1138   40.6886   26.8310 H   0  0  0  0  0  0  0  0  0  0  0  0
   33.8091   40.5507   27.4086 H   0  0  0  0  0  0  0  0  0  0  0  0
   32.2176   38.4189   25.8962 H   0  0  0  0  0  0  0  0  0  0  0  0
   34.2952   37.1078   25.8693 H   0  0  0  0  0  0  0  0  0  0  0  0
   35.1332   38.3772   26.8248 H   0  0  0  0  0  0  0  0  0  0  0  0
   32.7443   36.6792   27.7298 H   0  0  0  0  0  0  0  0  0  0  0  0
   34.4396   36.5411   28.3074 H   0  0  0  0  0  0  0  0  0  0  0  0
   34.3074   39.0668   32.1985 H   0  0  0  0  0  0  0  0  0  0  0  0
   34.0097   40.2700   30.8985 H   0  0  0  0  0  0  0  0  0  0  0  0
   32.6537   39.2747   31.5289 H   0  0  0  0  0  0  0  0  0  0  0  0
  1  3  2  0  0  0  0
  1  7  1  0  0  0  0
  2 12  2  0  0  0  0
  2 18  1  0  0  0  0
  2 19  1  0  0  0  0
  3 13  1  0  0  0  0
  3 15  1  0  0  0  0
  4 17  1  0  0  0  0
  4 20  1  0  0  0  0
  4 21  2  0  0  0  0
  5  6  2  0  0  0  0
  5 10  1  0  0  0  0
  5 11  1  0  0  0  0
  6 12  1  0  0  0  0
  7  8  2  0  0  0  0
  7 22  1  0  0  0  0
  8  9  1  0  0  0  0
  9 13  2  0  0  0  0
 10 19  1  0  0  0  0
 10 20  2  0  0  0  0
 11 17  2  0  0  0  0
 12 16  1  0  0  0  0
 13 16  1  0  0  0  0
 14 19  1  0  0  0  0
 21 25  1  0  0  0  0
 23 24  1  0  0  0  0
 23 28  1  0  0  0  0
 24 25  1  0  0  0  0
 25 26  1  0  0  0  0
 26 27  1  0  0  0  0
 27 28  1  0  0  0  0
 28 29  1  0  0  0  0
 29 30  2  0  0  0  0
 29 31  1  0  0  0  0
  1 32  1  0  0  0  0
  6 33  1  0  0  0  0
  8 34  1  0  0  0  0
  9 35  1  0  0  0  0
 11 36  1  0  0  0  0
 14 37  1  0  0  0  0
 14 38  1  0  0  0  0
 14 39  1  0  0  0  0
 18 40  1  0  0  0  0
 23 41  1  0  0  0  0
 23 42  1  0  0  0  0
 24 43  1  0  0  0  0
 24 44  1  0  0  0  0
 25 45  1  0  0  0  0
 26 46  1  0  0  0  0
 26 47  1  0  0  0  0
 27 48  1  0  0  0  0
 27 49  1  0  0  0  0
 31 50  1  0  0  0  0
 31 51  1  0  0  0  0
 31 52  1  0  0  0  0
M  END
> <r_user_dG.exp>
-12.264

$$$$
p38a_2ee
  -OEChem-05192314073D
 Structure written by MMmdl.
 52 55  0     1  0  0  0  0  0999 V2000
   38.2632   36.7144   17.0134 C   0  0  0  0  0  0  0  0  0  0  0  0
   34.5448   34.9770   21.1828 C   0  0  0  0  0  0  0  0  0  0  0  0
   37.5969   36.1886   18.1373 C   0  0  0  0  0  0  0  0  0  0  0  0
   34.0445   38.9756   23.7378 C   0  0  0  0  0  0  0  0  0  0  0  0
   34.8025   37.8108   21.4407 C   0  0  3  0  0  0  0  0  0  0  0  0
   35.2536   37.1252   20.2344 C   0  0  0  0  0  0  0  0  0  0  0  0
   37.6232   36.7427   15.7594 C   0  0  0  0  0  0  0  0  0  0  0  0
   36.3272   36.2163   15.6228 C   0  0  0  0  0  0  0  0  0  0  0  0
   35.6719   35.6684   16.7395 C   0  0  0  0  0  0  0  0  0  0  0  0
   34.3067   37.0366   22.5109 C   0  0  0  0  0  0  0  0  0  0  0  0
   34.8522   39.2088   21.6169 C   0  0  0  0  0  0  0  0  0  0  0  0
   35.1646   35.7815   20.1251 C   0  0  0  0  0  0  0  0  0  0  0  0
   36.2931   35.6640   18.0028 C   0  0  0  0  0  0  0  0  0  0  0  0
   33.6690   34.8315   23.4618 C   0  0  0  0  0  0  0  0  0  0  0  0
   38.1961   36.1968   19.3280 F   0  0  0  0  0  0  0  0  0  0  0  0
   35.6498   35.0616   19.0536 O   0  0  0  0  0  0  0  0  0  0  0  0
   34.4789   39.7925   22.7772 N   0  0  0  0  0  0  0  0  0  0  0  0
   34.3290   33.7761   21.0235 O   0  0  0  0  0  0  0  0  0  0  0  0
   34.2121   35.6181   22.3415 N   0  0  0  0  0  0  0  0  0  0  0  0
   33.9306   37.6499   23.6560 N   0  0  0  0  0  0  0  0  0  0  0  0
   33.6717   39.5652   24.9268 N   0  0  0  0  0  0  0  0  0  0  0  0
   38.2365   37.2743   14.7019 F   0  0  0  0  0  0  0  0  0  0  0  0
   32.3864   39.3434   28.5029 C   0  0  0  0  0  0  0  0  0  0  0  0
   32.8826   39.9949   27.2021 C   0  0  0  0  0  0  0  0  0  0  0  0
   33.1625   38.9326   26.1269 C   0  0  0  0  0  0  0  0  0  0  0  0
   34.1671   37.8864   26.6357 C   0  0  0  0  0  0  0  0  0  0  0  0
   33.6709   37.2349   27.9364 C   0  0  0  0  0  0  0  0  0  0  0  0
   33.3911   38.2971   29.0117 N   0  0  0  0  0  0  0  0  0  0  0  0
   34.0185   38.2191   30.2384 C   0  0  0  0  0  0  0  0  0  0  0  0
   34.7890   37.3195   30.4753 O   0  0  0  0  0  0  0  0  0  0  0  0
   33.7272   39.2812   31.2889 C   0  0  0  0  0  0  0  0  0  0  0  0
   39.2681   37.0971   17.1136 H   0  0  0  0  0  0  0  0  0  0  0  0
   33.7886   37.8932   21.0222 H   0  0  0  0  0  0  0  0  0  0  0  0
   35.6644   37.6998   19.4174 H   0  0  0  0  0  0  0  0  0  0  0  0
   35.8354   36.2327   14.6614 H   0  0  0  0  0  0  0  0  0  0  0  0
   34.6837   35.2474   16.6272 H   0  0  0  0  0  0  0  0  0  0  0  0
   35.1976   39.8294   20.8033 H   0  0  0  0  0  0  0  0  0  0  0  0
   33.4566   35.4988   24.3101 H   0  0  0  0  0  0  0  0  0  0  0  0
   32.7402   34.3349   23.1446 H   0  0  0  0  0  0  0  0  0  0  0  0
   34.4045   34.0728   23.7675 H   0  0  0  0  0  0  0  0  0  0  0  0
   32.2584   40.1220   29.2693 H   0  0  0  0  0  0  0  0  0  0  0  0
   31.4203   38.8526   28.3139 H   0  0  0  0  0  0  0  0  0  0  0  0
   32.1138   40.6886   26.8310 H   0  0  0  0  0  0  0  0  0  0  0  0
   33.8091   40.5507   27.4086 H   0  0  0  0  0  0  0  0  0  0  0  0
   32.2176   38.4189   25.8962 H   0  0  0  0  0  0  0  0  0  0  0  0
   34.2952   37.1078   25.8693 H   0  0  0  0  0  0  0  0  0  0  0  0
   35.1332   38.3772   26.8248 H   0  0  0  0  0  0  0  0  0  0  0  0
   32.7443   36.6792   27.7298 H   0  0  0  0  0  0  0  0  0  0  0  0
   34.4396   36.5411   28.3074 H   0  0  0  0  0  0  0  0  0  0  0  0
   34.3074   39.0668   32.1985 H   0  0  0  0  0  0  0  0  0  0  0  0
   34.0097   40.2700   30.8985 H   0  0  0  0  0  0  0  0  0  0  0  0
   32.6537   39.2747   31.5289 H   0  0  0  0  0  0  0  0  0  0  0  0
  1  3  2  0  0  0  0
  1  7  1  0  0  0  0
  2 12  1  0  0  0  0
  2 18  2  0  0  0  0
  2 19  1  0  0  0  0
  3 13  1  0  0  0  0
  3 15  1  0  0  0  0
  4 17  1  0  0  0  0
  4 20  1  0  0  0  0
  4 21  2  0  0  0  0
  5  6  1  0  0  0  0
  5 10  1  0  0  0  0
  5 11  1  0  0  0  0
  6 12  2  0  0  0  0
  7  8  2  0  0  0  0
  7 22  1  0  0  0  0
  8  9  1  0  0  0  0
  9 13  2  0  0  0  0
 10 19  1  0  0  0  0
 10 20  2  0  0  0  0
 11 17  2  0  0  0  0
 12 16  1  0  0  0  0
 13 16  1  0  0  0  0
 14 19  1  0  0  0  0
 21 25  1  0  0  0  0
 23 24  1  0  0  0  0
 23 28  1  0  0  0  0
 24 25  1  0  0  0  0
 25 26  1  0  0  0  0
 26 27  1  0  0  0  0
 27 28  1  0  0  0  0
 28 29  1  0  0  0  0
 29 30  2  0  0  0  0
 29 31  1  0  0  0  0
  1 32  1  0  0  0  0
  5 33  1  0  0  0  0
  6 34  1  0  0  0  0
  8 35  1  0  0  0  0
  9 36  1  0  0  0  0
 11 37  1  0  0  0  0
 14 38  1  0  0  0  0
 14 39  1  0  0  0  0
 14 40  1  0  0  0  0
 23 41  1  0  0  0  0
 23 42  1  0  0  0  0
 24 43  1  0  0  0  0
 24 44  1  0  0  0  0
 25 45  1  0  0  0  0
 26 46  1  0  0  0  0
 26 47  1  0  0  0  0
 27 48  1  0  0  0  0
 27 49  1  0  0  0  0
 31 50  1  0  0  0  0
 31 51  1  0  0  0  0
 31 52  1  0  0  0  0
M  END
> <r_user_dG.exp>
-12.264

$$$$
p38a_2ee
  -OEChem-05192314073D
 Structure written by MMmdl.
 52 55  0     1  0  0  0  0  0999 V2000
   38.2632   36.7144   17.0134 C   0  0  0  0  0  0  0  0  0  0  0  0
   34.5448   34.9770   21.1828 C   0  0  0  0  0  0  0  0  0  0  0  0
   37.5969   36.1886   18.1373 C   0  0  0  0  0  0  0  0  0  0  0  0
   34.0445   38.9756   23.7378 C   0  0  0  0  0  0  0  0  0  0  0  0
   34.8025   37.8108   21.4407 C   0  0  0  0  0  0  0  0  0  0  0  0
   35.2536   37.1252   20.2344 C   0  0  0  0  0  0  0  0  0  0  0  0
   37.6232   36.7427   15.7594 C   0  0  0  0  0  0  0  0  0  0  0  0
   36.3272   36.2163   15.6228 C   0  0  0  0  0  0  0  0  0  0  0  0
   35.6719   35.6684   16.7395 C   0  0  0  0  0  0  0  0  0  0  0  0
   34.3067   37.0366   22.5109 C   0  0  0  0  0  0  0  0  0  0  0  0
   34.8522   39.2088   21.6169 C   0  0  0  0  0  0  0  0  0  0  0  0
   35.1646   35.7815   20.1251 C   0  0  3  0  0  0  0  0  0  0  0  0
   36.2931   35.6640   18.0028 C   0  0  0  0  0  0  0  0  0  0  0  0
   33.6690   34.8315   23.4618 C   0  0  0  0  0  0  0  0  0  0  0  0
   38.1961   36.1968   19.3280 F   0  0  0  0  0  0  0  0  0  0  0  0
   35.6498   35.0616   19.0536 O   0  0  0  0  0  0  0  0  0  0  0  0
   34.4789   39.7925   22.7772 N   0  0  0  0  0  0  0  0  0  0  0  0
   34.3290   33.7761   21.0235 O   0  0  0  0  0  0  0  0  0  0  0  0
   34.2121   35.6181   22.3415 N   0  0  0  0  0  0  0  0  0  0  0  0
   33.9306   37.6499   23.6560 N   0  0  0  0  0  0  0  0  0  0  0  0
   33.6717   39.5652   24.9268 N   0  0  0  0  0  0  0  0  0  0  0  0
   38.2365   37.2743   14.7019 F   0  0  0  0  0  0  0  0  0  0  0  0
   32.3864   39.3434   28.5029 C   0  0  0  0  0  0  0  0  0  0  0  0
   32.8826   39.9949   27.2021 C   0  0  0  0  0  0  0  0  0  0  0  0
   33.1625   38.9326   26.1269 C   0  0  0  0  0  0  0  0  0  0  0  0
   34.1671   37.8864   26.6357 C   0  0  0  0  0  0  0  0  0  0  0  0
   33.6709   37.2349   27.9364 C   0  0  0  0  0  0  0  0  0  0  0  0
   33.3911   38.2971   29.0117 N   0  0  0  0  0  0  0  0  0  0  0  0
   34.0185   38.2191   30.2384 C   0  0  0  0  0  0  0  0  0  0  0  0
   34.7890   37.3195   30.4753 O   0  0  0  0  0  0  0  0  0  0  0  0
   33.7272   39.2812   31.2889 C   0  0  0  0  0  0  0  0  0  0  0  0
   39.2681   37.0971   17.1136 H   0  0  0  0  0  0  0  0  0  0  0  0
   35.6644   37.6998   19.4174 H   0  0  0  0  0  0  0  0  0  0  0  0
   35.8354   36.2327   14.6614 H   0  0  0  0  0  0  0  0  0  0  0  0
   34.6837   35.2474   16.6272 H   0  0  0  0  0  0  0  0  0  0  0  0
   35.1976   39.8294   20.8033 H   0  0  0  0  0  0  0  0  0  0  0  0
   34.1907   35.8815   19.6236 H   0  0  0  0  0  0  0  0  0  0  0  0
   33.4566   35.4988   24.3101 H   0  0  0  0  0  0  0  0  0  0  0  0
   32.7402   34.3349   23.1446 H   0  0  0  0  0  0  0  0  0  0  0  0
   34.4045   34.0728   23.7675 H   0  0  0  0  0  0  0  0  0  0  0  0
   32.2584   40.1220   29.2693 H   0  0  0  0  0  0  0  0  0  0  0  0
   31.4203   38.8526   28.3139 H   0  0  0  0  0  0  0  0  0  0  0  0
   32.1138   40.6886   26.8310 H   0  0  0  0  0  0  0  0  0  0  0  0
   33.8091   40.5507   27.4086 H   0  0  0  0  0  0  0  0  0  0  0  0
   32.2176   38.4189   25.8962 H   0  0  0  0  0  0  0  0  0  0  0  0
   34.2952   37.1078   25.8693 H   0  0  0  0  0  0  0  0  0  0  0  0
   35.1332   38.3772   26.8248 H   0  0  0  0  0  0  0  0  0  0  0  0
   32.7443   36.6792   27.7298 H   0  0  0  0  0  0  0  0  0  0  0  0
   34.4396   36.5411   28.3074 H   0  0  0  0  0  0  0  0  0  0  0  0
   34.3074   39.0668   32.1985 H   0  0  0  0  0  0  0  0  0  0  0  0
   34.0097   40.2700   30.8985 H   0  0  0  0  0  0  0  0  0  0  0  0
   32.6537   39.2747   31.5289 H   0  0  0  0  0  0  0  0  0  0  0  0
  1  3  2  0  0  0  0
  1  7  1  0  0  0  0
  2 12  1  0  0  0  0
  2 18  2  0  0  0  0
  2 19  1  0  0  0  0
  3 13  1  0  0  0  0
  3 15  1  0  0  0  0
  4 17  1  0  0  0  0
  4 20  1  0  0  0  0
  4 21  2  0  0  0  0
  5  6  2  0  0  0  0
  5 10  1  0  0  0  0
  5 11  1  0  0  0  0
  6 12  1  0  0  0  0
  7  8  2  0  0  0  0
  7 22  1  0  0  0  0
  8  9  1  0  0  0  0
  9 13  2  0  0  0  0
 10 19  1  0  0  0  0
 10 20  2  0  0  0  0
 11 17  2  0  0  0  0
 12 16  1  0  0  0  0
 13 16  1  0  0  0  0
 14 19  1  0  0  0  0
 21 25  1  0  0  0  0
 23 24  1  0  0  0  0
 23 28  1  0  0  0  0
 24 25  1  0  0  0  0
 25 26  1  0  0  0  0
 26 27  1  0  0  0  0
 27 28  1  0  0  0  0
 28 29  1  0  0  0  0
 29 30  2  0  0  0  0
 29 31  1  0  0  0  0
  1 32  1  0  0  0  0
  6 33  1  0  0  0  0
  8 34  1  0  0  0  0
  9 35  1  0  0  0  0
 11 36  1  0  0  0  0
 12 37  1  0  0  0  0
 14 38  1  0  0  0  0
 14 39  1  0  0  0  0
 14 40  1  0  0  0  0
 23 41  1  0  0  0  0
 23 42  1  0  0  0  0
 24 43  1  0  0  0  0
 24 44  1  0  0  0  0
 25 45  1  0  0  0  0
 26 46  1  0  0  0  0
 26 47  1  0  0  0  0
 27 48  1  0  0  0  0
 27 49  1  0  0  0  0
 31 50  1  0  0  0  0
 31 51  1  0  0  0  0
 31 52  1  0  0  0  0
M  END
> <r_user_dG.exp>
-12.264

$$$$
p38a_2ee
  -OEChem-05192314073D
 Structure written by MMmdl.
 52 55  0     0  0  0  0  0  0999 V2000
   38.2632   36.7144   17.0134 C   0  0  0  0  0  0  0  0  0  0  0  0
   34.5448   34.9770   21.1828 C   0  0  0  0  0  0  0  0  0  0  0  0
   37.5969   36.1886   18.1373 C   0  0  0  0  0  0  0  0  0  0  0  0
   34.0445   38.9756   23.7378 C   0  0  0  0  0  0  0  0  0  0  0  0
   34.8025   37.8108   21.4407 C   0  0  0  0  0  0  0  0  0  0  0  0
   35.2536   37.1252   20.2344 C   0  0  0  0  0  0  0  0  0  0  0  0
   37.6232   36.7427   15.7594 C   0  0  0  0  0  0  0  0  0  0  0  0
   36.3272   36.2163   15.6228 C   0  0  0  0  0  0  0  0  0  0  0  0
   35.6719   35.6684   16.7395 C   0  0  0  0  0  0  0  0  0  0  0  0
   34.3067   37.0366   22.5109 C   0  0  0  0  0  0  0  0  0  0  0  0
   34.8522   39.2088   21.6169 C   0  0  0  0  0  0  0  0  0  0  0  0
   35.1646   35.7815   20.1251 C   0  0  0  0  0  0  0  0  0  0  0  0
   36.2931   35.6640   18.0028 C   0  0  0  0  0  0  0  0  0  0  0  0
   33.6690   34.8315   23.4618 C   0  0  0  0  0  0  0  0  0  0  0  0
   38.1961   36.1968   19.3280 F   0  0  0  0  0  0  0  0  0  0  0  0
   35.6498   35.0616   19.0536 O   0  0  0  0  0  0  0  0  0  0  0  0
   34.4789   39.7925   22.7772 N   0  0  0  0  0  0  0  0  0  0  0  0
   34.3290   33.7761   21.0235 O   0  0  0  0  0  0  0  0  0  0  0  0
   34.2121   35.6181   22.3415 N   0  0  0  0  0  0  0  0  0  0  0  0
   33.9306   37.6499   23.6560 N   0  0  0  0  0  0  0  0  0  0  0  0
   33.6717   39.5652   24.9268 N   0  0  0  0  0  0  0  0  0  0  0  0
   38.2365   37.2743   14.7019 F   0  0  0  0  0  0  0  0  0  0  0  0
   32.3864   39.3434   28.5029 C   0  0  0  0  0  0  0  0  0  0  0  0
   32.8826   39.9949   27.2021 C   0  0  0  0  0  0  0  0  0  0  0  0
   33.1625   38.9326   26.1269 C   0  0  0  0  0  0  0  0  0  0  0  0
   34.1671   37.8864   26.6357 C   0  0  0  0  0  0  0  0  0  0  0  0
   33.6709   37.2349   27.9364 C   0  0  0  0  0  0  0  0  0  0  0  0
   33.3911   38.2971   29.0117 N   0  0  0  0  0  0  0  0  0  0  0  0
   34.0185   38.2191   30.2384 C   0  0  0  0  0  0  0  0  0  0  0  0
   34.7890   37.3195   30.4753 O   0  0  0  0  0  0  0  0  0  0  0  0
   33.7272   39.2812   31.2889 C   0  0  0  0  0  0  0  0  0  0  0  0
   39.2681   37.0971   17.1136 H   0  0  0  0  0  0  0  0  0  0  0  0
   35.6644   37.6998   19.4174 H   0  0  0  0  0  0  0  0  0  0  0  0
   35.8354   36.2327   14.6614 H   0  0  0  0  0  0  0  0  0  0  0  0
   34.6837   35.2474   16.6272 H   0  0  0  0  0  0  0  0  0  0  0  0
   35.1976   39.8294   20.8033 H   0  0  0  0  0  0  0  0  0  0  0  0
   33.4566   35.4988   24.3101 H   0  0  0  0  0  0  0  0  0  0  0  0
   32.7402   34.3349   23.1446 H   0  0  0  0  0  0  0  0  0  0  0  0
   34.4045   34.0728   23.7675 H   0  0  0  0  0  0  0  0  0  0  0  0
   34.4880   40.0570   25.2296 H   0  0  0  0  0  0  0  0  0  0  0  0
   32.2584   40.1220   29.2693 H   0  0  0  0  0  0  0  0  0  0  0  0
   31.4203   38.8526   28.3139 H   0  0  0  0  0  0  0  0  0  0  0  0
   32.1138   40.6886   26.8310 H   0  0  0  0  0  0  0  0  0  0  0  0
   33.8091   40.5507   27.4086 H   0  0  0  0  0  0  0  0  0  0  0  0
   32.2176   38.4189   25.8962 H   0  0  0  0  0  0  0  0  0  0  0  0
   34.2952   37.1078   25.8693 H   0  0  0  0  0  0  0  0  0  0  0  0
   35.1332   38.3772   26.8248 H   0  0  0  0  0  0  0  0  0  0  0  0
   32.7443   36.6792   27.7298 H   0  0  0  0  0  0  0  0  0  0  0  0
   34.4396   36.5411   28.3074 H   0  0  0  0  0  0  0  0  0  0  0  0
   35.1279   37.4163   31.3575 H   0  0  0  0  0  0  0  0  0  0  0  0
   34.2106   39.2335   32.2535 H   0  0  0  0  0  0  0  0  0  0  0  0
   33.0371   40.0825   31.0697 H   0  0  0  0  0  0  0  0  0  0  0  0
  1  3  2  0  0  0  0
  1  7  1  0  0  0  0
  2 12  1  0  0  0  0
  2 18  2  0  0  0  0
  2 19  1  0  0  0  0
  3 13  1  0  0  0  0
  3 15  1  0  0  0  0
  4 17  2  0  0  0  0
  4 20  1  0  0  0  0
  4 21  1  0  0  0  0
  5  6  1  0  0  0  0
  5 10  1  0  0  0  0
  5 11  2  0  0  0  0
  6 12  2  0  0  0  0
  7  8  2  0  0  0  0
  7 22  1  0  0  0  0
  8  9  1  0  0  0  0
  9 13  2  0  0  0  0
 10 19  1  0  0  0  0
 10 20  2  0  0  0  0
 11 17  1  0  0  0  0
 12 16  1  0  0  0  0
 13 16  1  0  0  0  0
 14 19  1  0  0  0  0
 21 25  1  0  0  0  0
 23 24  1  0  0  0  0
 23 28  1  0  0  0  0
 24 25  1  0  0  0  0
 25 26  1  0  0  0  0
 26 27  1  0  0  0  0
 27 28  1  0  0  0  0
 28 29  1  0  0  0  0
 29 30  1  0  0  0  0
 29 31  2  0  0  0  0
  1 32  1  0  0  0  0
  6 33  1  0  0  0  0
  8 34  1  0  0  0  0
  9 35  1  0  0  0  0
 11 36  1  0  0  0  0
 14 37  1  0  0  0  0
 14 38  1  0  0  0  0
 14 39  1  0  0  0  0
 21 40  1  0  0  0  0
 23 41  1  0  0  0  0
 23 42  1  0  0  0  0
 24 43  1  0  0  0  0
 24 44  1  0  0  0  0
 25 45  1  0  0  0  0
 26 46  1  0  0  0  0
 26 47  1  0  0  0  0
 27 48  1  0  0  0  0
 27 49  1  0  0  0  0
 30 50  1  0  0  0  0
 31 51  1  0  0  0  0
 31 52  1  0  0  0  0
M  END
> <r_user_dG.exp>
-12.264

$$$$
p38a_2ee
  -OEChem-05192314073D
 Structure written by MMmdl.
 52 55  0     0  0  0  0  0  0999 V2000
   38.2632   36.7144   17.0134 C   0  0  0  0  0  0  0  0  0  0  0  0
   34.5448   34.9770   21.1828 C   0  0  0  0  0  0  0  0  0  0  0  0
   37.5969   36.1886   18.1373 C   0  0  0  0  0  0  0  0  0  0  0  0
   34.0445   38.9756   23.7378 C   0  0  0  0  0  0  0  0  0  0  0  0
   34.8025   37.8108   21.4407 C   0  0  0  0  0  0  0  0  0  0  0  0
   35.2536   37.1252   20.2344 C   0  0  0  0  0  0  0  0  0  0  0  0
   37.6232   36.7427   15.7594 C   0  0  0  0  0  0  0  0  0  0  0  0
   36.3272   36.2163   15.6228 C   0  0  0  0  0  0  0  0  0  0  0  0
   35.6719   35.6684   16.7395 C   0  0  0  0  0  0  0  0  0  0  0  0
   34.3067   37.0366   22.5109 C   0  0  0  0  0  0  0  0  0  0  0  0
   34.8522   39.2088   21.6169 C   0  0  0  0  0  0  0  0  0  0  0  0
   35.1646   35.7815   20.1251 C   0  0  0  0  0  0  0  0  0  0  0  0
   36.2931   35.6640   18.0028 C   0  0  0  0  0  0  0  0  0  0  0  0
   33.6690   34.8315   23.4618 C   0  0  0  0  0  0  0  0  0  0  0  0
   38.1961   36.1968   19.3280 F   0  0  0  0  0  0  0  0  0  0  0  0
   35.6498   35.0616   19.0536 O   0  0  0  0  0  0  0  0  0  0  0  0
   34.4789   39.7925   22.7772 N   0  0  0  0  0  0  0  0  0  0  0  0
   34.3290   33.7761   21.0235 O   0  0  0  0  0  0  0  0  0  0  0  0
   34.2121   35.6181   22.3415 N   0  0  0  0  0  0  0  0  0  0  0  0
   33.9306   37.6499   23.6560 N   0  0  0  0  0  0  0  0  0  0  0  0
   33.6717   39.5652   24.9268 N   0  0  0  0  0  0  0  0  0  0  0  0
   38.2365   37.2743   14.7019 F   0  0  0  0  0  0  0  0  0  0  0  0
   32.3864   39.3434   28.5029 C   0  0  0  0  0  0  0  0  0  0  0  0
   32.8826   39.9949   27.2021 C   0  0  0  0  0  0  0  0  0  0  0  0
   33.1625   38.9326   26.1269 C   0  0  0  0  0  0  0  0  0  0  0  0
   34.1671   37.8864   26.6357 C   0  0  0  0  0  0  0  0  0  0  0  0
   33.6709   37.2349   27.9364 C   0  0  0  0  0  0  0  0  0  0  0  0
   33.3911   38.2971   29.0117 N   0  0  0  0  0  0  0  0  0  0  0  0
   34.0185   38.2191   30.2384 C   0  0  0  0  0  0  0  0  0  0  0  0
   34.7890   37.3195   30.4753 O   0  0  0  0  0  0  0  0  0  0  0  0
   33.7272   39.2812   31.2889 C   0  0  0  0  0  0  0  0  0  0  0  0
   39.2681   37.0971   17.1136 H   0  0  0  0  0  0  0  0  0  0  0  0
   35.6644   37.6998   19.4174 H   0  0  0  0  0  0  0  0  0  0  0  0
   35.8354   36.2327   14.6614 H   0  0  0  0  0  0  0  0  0  0  0  0
   34.6837   35.2474   16.6272 H   0  0  0  0  0  0  0  0  0  0  0  0
   35.1976   39.8294   20.8033 H   0  0  0  0  0  0  0  0  0  0  0  0
   33.4566   35.4988   24.3101 H   0  0  0  0  0  0  0  0  0  0  0  0
   32.7402   34.3349   23.1446 H   0  0  0  0  0  0  0  0  0  0  0  0
   34.4045   34.0728   23.7675 H   0  0  0  0  0  0  0  0  0  0  0  0
   33.5744   37.1199   24.4255 H   0  0  0  0  0  0  0  0  0  0  0  0
   32.2584   40.1220   29.2693 H   0  0  0  0  0  0  0  0  0  0  0  0
   31.4203   38.8526   28.3139 H   0  0  0  0  0  0  0  0  0  0  0  0
   32.1138   40.6886   26.8310 H   0  0  0  0  0  0  0  0  0  0  0  0
   33.8091   40.5507   27.4086 H   0  0  0  0  0  0  0  0  0  0  0  0
   32.2176   38.4189   25.8962 H   0  0  0  0  0  0  0  0  0  0  0  0
   34.2952   37.1078   25.8693 H   0  0  0  0  0  0  0  0  0  0  0  0
   35.1332   38.3772   26.8248 H   0  0  0  0  0  0  0  0  0  0  0  0
   32.7443   36.6792   27.7298 H   0  0  0  0  0  0  0  0  0  0  0  0
   34.4396   36.5411   28.3074 H   0  0  0  0  0  0  0  0  0  0  0  0
   35.1279   37.4163   31.3575 H   0  0  0  0  0  0  0  0  0  0  0  0
   34.2106   39.2335   32.2535 H   0  0  0  0  0  0  0  0  0  0  0  0
   33.0371   40.0825   31.0697 H   0  0  0  0  0  0  0  0  0  0  0  0
  1  3  2  0  0  0  0
  1  7  1  0  0  0  0
  2 12  1  0  0  0  0
  2 18  2  0  0  0  0
  2 19  1  0  0  0  0
  3 13  1  0  0  0  0
  3 15  1  0  0  0  0
  4 17  1  0  0  0  0
  4 20  1  0  0  0  0
  4 21  2  0  0  0  0
  5  6  1  0  0  0  0
  5 10  2  0  0  0  0
  5 11  1  0  0  0  0
  6 12  2  0  0  0  0
  7  8  2  0  0  0  0
  7 22  1  0  0  0  0
  8  9  1  0  0  0  0
  9 13  2  0  0  0  0
 10 19  1  0  0  0  0
 10 20  1  0  0  0  0
 11 17  2  0  0  0  0
 12 16  1  0  0  0  0
 13 16  1  0  0  0  0
 14 19  1  0  0  0  0
 21 25  1  0  0  0  0
 23 24  1  0  0  0  0
 23 28  1  0  0  0  0
 24 25  1  0  0  0  0
 25 26  1  0  0  0  0
 26 27  1  0  0  0  0
 27 28  1  0  0  0  0
 28 29  1  0  0  0  0
 29 30  1  0  0  0  0
 29 31  2  0  0  0  0
  1 32  1  0  0  0  0
  6 33  1  0  0  0  0
  8 34  1  0  0  0  0
  9 35  1  0  0  0  0
 11 36  1  0  0  0  0
 14 37  1  0  0  0  0
 14 38  1  0  0  0  0
 14 39  1  0  0  0  0
 20 40  1  0  0  0  0
 23 41  1  0  0  0  0
 23 42  1  0  0  0  0
 24 43  1  0  0  0  0
 24 44  1  0  0  0  0
 25 45  1  0  0  0  0
 26 46  1  0  0  0  0
 26 47  1  0  0  0  0
 27 48  1  0  0  0  0
 27 49  1  0  0  0  0
 30 50  1  0  0  0  0
 31 51  1  0  0  0  0
 31 52  1  0  0  0  0
M  END
> <r_user_dG.exp>
-12.264

$$$$
p38a_2ee
  -OEChem-05192314073D
 Structure written by MMmdl.
 52 55  0     0  0  0  0  0  0999 V2000
   38.2632   36.7144   17.0134 C   0  0  0  0  0  0  0  0  0  0  0  0
   34.5448   34.9770   21.1828 C   0  0  0  0  0  0  0  0  0  0  0  0
   37.5969   36.1886   18.1373 C   0  0  0  0  0  0  0  0  0  0  0  0
   34.0445   38.9756   23.7378 C   0  0  0  0  0  0  0  0  0  0  0  0
   34.8025   37.8108   21.4407 C   0  0  0  0  0  0  0  0  0  0  0  0
   35.2536   37.1252   20.2344 C   0  0  0  0  0  0  0  0  0  0  0  0
   37.6232   36.7427   15.7594 C   0  0  0  0  0  0  0  0  0  0  0  0
   36.3272   36.2163   15.6228 C   0  0  0  0  0  0  0  0  0  0  0  0
   35.6719   35.6684   16.7395 C   0  0  0  0  0  0  0  0  0  0  0  0
   34.3067   37.0366   22.5109 C   0  0  0  0  0  0  0  0  0  0  0  0
   34.8522   39.2088   21.6169 C   0  0  0  0  0  0  0  0  0  0  0  0
   35.1646   35.7815   20.1251 C   0  0  0  0  0  0  0  0  0  0  0  0
   36.2931   35.6640   18.0028 C   0  0  0  0  0  0  0  0  0  0  0  0
   33.6690   34.8315   23.4618 C   0  0  0  0  0  0  0  0  0  0  0  0
   38.1961   36.1968   19.3280 F   0  0  0  0  0  0  0  0  0  0  0  0
   35.6498   35.0616   19.0536 O   0  0  0  0  0  0  0  0  0  0  0  0
   34.4789   39.7925   22.7772 N   0  0  0  0  0  0  0  0  0  0  0  0
   34.3290   33.7761   21.0235 O   0  0  0  0  0  0  0  0  0  0  0  0
   34.2121   35.6181   22.3415 N   0  0  0  0  0  0  0  0  0  0  0  0
   33.9306   37.6499   23.6560 N   0  0  0  0  0  0  0  0  0  0  0  0
   33.6717   39.5652   24.9268 N   0  0  0  0  0  0  0  0  0  0  0  0
   38.2365   37.2743   14.7019 F   0  0  0  0  0  0  0  0  0  0  0  0
   32.3864   39.3434   28.5029 C   0  0  0  0  0  0  0  0  0  0  0  0
   32.8826   39.9949   27.2021 C   0  0  0  0  0  0  0  0  0  0  0  0
   33.1625   38.9326   26.1269 C   0  0  0  0  0  0  0  0  0  0  0  0
   34.1671   37.8864   26.6357 C   0  0  0  0  0  0  0  0  0  0  0  0
   33.6709   37.2349   27.9364 C   0  0  0  0  0  0  0  0  0  0  0  0
   33.3911   38.2971   29.0117 N   0  0  0  0  0  0  0  0  0  0  0  0
   34.0185   38.2191   30.2384 C   0  0  0  0  0  0  0  0  0  0  0  0
   34.7890   37.3195   30.4753 O   0  0  0  0  0  0  0  0  0  0  0  0
   33.7272   39.2812   31.2889 C   0  0  0  0  0  0  0  0  0  0  0  0
   39.2681   37.0971   17.1136 H   0  0  0  0  0  0  0  0  0  0  0  0
   35.6644   37.6998   19.4174 H   0  0  0  0  0  0  0  0  0  0  0  0
   35.8354   36.2327   14.6614 H   0  0  0  0  0  0  0  0  0  0  0  0
   34.6837   35.2474   16.6272 H   0  0  0  0  0  0  0  0  0  0  0  0
   35.1976   39.8294   20.8033 H   0  0  0  0  0  0  0  0  0  0  0  0
   33.4566   35.4988   24.3101 H   0  0  0  0  0  0  0  0  0  0  0  0
   32.7402   34.3349   23.1446 H   0  0  0  0  0  0  0  0  0  0  0  0
   34.4045   34.0728   23.7675 H   0  0  0  0  0  0  0  0  0  0  0  0
   34.5258   40.7827   22.9084 H   0  0  0  0  0  0  0  0  0  0  0  0
   32.2584   40.1220   29.2693 H   0  0  0  0  0  0  0  0  0  0  0  0
   31.4203   38.8526   28.3139 H   0  0  0  0  0  0  0  0  0  0  0  0
   32.1138   40.6886   26.8310 H   0  0  0  0  0  0  0  0  0  0  0  0
   33.8091   40.5507   27.4086 H   0  0  0  0  0  0  0  0  0  0  0  0
   32.2176   38.4189   25.8962 H   0  0  0  0  0  0  0  0  0  0  0  0
   34.2952   37.1078   25.8693 H   0  0  0  0  0  0  0  0  0  0  0  0
   35.1332   38.3772   26.8248 H   0  0  0  0  0  0  0  0  0  0  0  0
   32.7443   36.6792   27.7298 H   0  0  0  0  0  0  0  0  0  0  0  0
   34.4396   36.5411   28.3074 H   0  0  0  0  0  0  0  0  0  0  0  0
   35.1279   37.4163   31.3575 H   0  0  0  0  0  0  0  0  0  0  0  0
   34.2106   39.2335   32.2535 H   0  0  0  0  0  0  0  0  0  0  0  0
   33.0371   40.0825   31.0697 H   0  0  0  0  0  0  0  0  0  0  0  0
  1  3  2  0  0  0  0
  1  7  1  0  0  0  0
  2 12  1  0  0  0  0
  2 18  2  0  0  0  0
  2 19  1  0  0  0  0
  3 13  1  0  0  0  0
  3 15  1  0  0  0  0
  4 17  1  0  0  0  0
  4 20  1  0  0  0  0
  4 21  2  0  0  0  0
  5  6  1  0  0  0  0
  5 10  1  0  0  0  0
  5 11  2  0  0  0  0
  6 12  2  0  0  0  0
  7  8  2  0  0  0  0
  7 22  1  0  0  0  0
  8  9  1  0  0  0  0
  9 13  2  0  0  0  0
 10 19  1  0  0  0  0
 10 20  2  0  0  0  0
 11 17  1  0  0  0  0
 12 16  1  0  0  0  0
 13 16  1  0  0  0  0
 14 19  1  0  0  0  0
 21 25  1  0  0  0  0
 23 24  1  0  0  0  0
 23 28  1  0  0  0  0
 24 25  1  0  0  0  0
 25 26  1  0  0  0  0
 26 27  1  0  0  0  0
 27 28  1  0  0  0  0
 28 29  1  0  0  0  0
 29 30  1  0  0  0  0
 29 31  2  0  0  0  0
  1 32  1  0  0  0  0
  6 33  1  0  0  0  0
  8 34  1  0  0  0  0
  9 35  1  0  0  0  0
 11 36  1  0  0  0  0
 14 37  1  0  0  0  0
 14 38  1  0  0  0  0
 14 39  1  0  0  0  0
 17 40  1  0  0  0  0
 23 41  1  0  0  0  0
 23 42  1  0  0  0  0
 24 43  1  0  0  0  0
 24 44  1  0  0  0  0
 25 45  1  0  0  0  0
 26 46  1  0  0  0  0
 26 47  1  0  0  0  0
 27 48  1  0  0  0  0
 27 49  1  0  0  0  0
 30 50  1  0  0  0  0
 31 51  1  0  0  0  0
 31 52  1  0  0  0  0
M  END
> <r_user_dG.exp>
-12.264

$$$$
p38a_2ee
  -OEChem-05192314073D
 Structure written by MMmdl.
 52 55  0     0  0  0  0  0  0999 V2000
   38.2632   36.7144   17.0134 C   0  0  0  0  0  0  0  0  0  0  0  0
   34.5448   34.9770   21.1828 C   0  0  0  0  0  0  0  0  0  0  0  0
   37.5969   36.1886   18.1373 C   0  0  0  0  0  0  0  0  0  0  0  0
   34.0445   38.9756   23.7378 C   0  0  0  0  0  0  0  0  0  0  0  0
   34.8025   37.8108   21.4407 C   0  0  0  0  0  0  0  0  0  0  0  0
   35.2536   37.1252   20.2344 C   0  0  0  0  0  0  0  0  0  0  0  0
   37.6232   36.7427   15.7594 C   0  0  0  0  0  0  0  0  0  0  0  0
   36.3272   36.2163   15.6228 C   0  0  0  0  0  0  0  0  0  0  0  0
   35.6719   35.6684   16.7395 C   0  0  0  0  0  0  0  0  0  0  0  0
   34.3067   37.0366   22.5109 C   0  0  0  0  0  0  0  0  0  0  0  0
   34.8522   39.2088   21.6169 C   0  0  0  0  0  0  0  0  0  0  0  0
   35.1646   35.7815   20.1251 C   0  0  0  0  0  0  0  0  0  0  0  0
   36.2931   35.6640   18.0028 C   0  0  0  0  0  0  0  0  0  0  0  0
   33.6690   34.8315   23.4618 C   0  0  0  0  0  0  0  0  0  0  0  0
   38.1961   36.1968   19.3280 F   0  0  0  0  0  0  0  0  0  0  0  0
   35.6498   35.0616   19.0536 O   0  0  0  0  0  0  0  0  0  0  0  0
   34.4789   39.7925   22.7772 N   0  0  0  0  0  0  0  0  0  0  0  0
   34.3290   33.7761   21.0235 O   0  0  0  0  0  0  0  0  0  0  0  0
   34.2121   35.6181   22.3415 N   0  0  0  0  0  0  0  0  0  0  0  0
   33.9306   37.6499   23.6560 N   0  0  0  0  0  0  0  0  0  0  0  0
   33.6717   39.5652   24.9268 N   0  0  0  0  0  0  0  0  0  0  0  0
   38.2365   37.2743   14.7019 F   0  0  0  0  0  0  0  0  0  0  0  0
   32.3864   39.3434   28.5029 C   0  0  0  0  0  0  0  0  0  0  0  0
   32.8826   39.9949   27.2021 C   0  0  0  0  0  0  0  0  0  0  0  0
   33.1625   38.9326   26.1269 C   0  0  0  0  0  0  0  0  0  0  0  0
   34.1671   37.8864   26.6357 C   0  0  0  0  0  0  0  0  0  0  0  0
   33.6709   37.2349   27.9364 C   0  0  0  0  0  0  0  0  0  0  0  0
   33.3911   38.2971   29.0117 N   0  0  0  0  0  0  0  0  0  0  0  0
   34.0185   38.2191   30.2384 C   0  0  0  0  0  0  0  0  0  0  0  0
   34.7890   37.3195   30.4753 O   0  0  0  0  0  0  0  0  0  0  0  0
   33.7272   39.2812   31.2889 C   0  0  0  0  0  0  0  0  0  0  0  0
   39.2681   37.0971   17.1136 H   0  0  0  0  0  0  0  0  0  0  0  0
   35.6644   37.6998   19.4174 H   0  0  0  0  0  0  0  0  0  0  0  0
   35.8354   36.2327   14.6614 H   0  0  0  0  0  0  0  0  0  0  0  0
   34.6837   35.2474   16.6272 H   0  0  0  0  0  0  0  0  0  0  0  0
   35.1976   39.8294   20.8033 H   0  0  0  0  0  0  0  0  0  0  0  0
   33.4566   35.4988   24.3101 H   0  0  0  0  0  0  0  0  0  0  0  0
   32.7402   34.3349   23.1446 H   0  0  0  0  0  0  0  0  0  0  0  0
   34.4045   34.0728   23.7675 H   0  0  0  0  0  0  0  0  0  0  0  0
   33.9261   33.4197   21.8065 H   0  0  0  0  0  0  0  0  0  0  0  0
   32.2584   40.1220   29.2693 H   0  0  0  0  0  0  0  0  0  0  0  0
   31.4203   38.8526   28.3139 H   0  0  0  0  0  0  0  0  0  0  0  0
   32.1138   40.6886   26.8310 H   0  0  0  0  0  0  0  0  0  0  0  0
   33.8091   40.5507   27.4086 H   0  0  0  0  0  0  0  0  0  0  0  0
   32.2176   38.4189   25.8962 H   0  0  0  0  0  0  0  0  0  0  0  0
   34.2952   37.1078   25.8693 H   0  0  0  0  0  0  0  0  0  0  0  0
   35.1332   38.3772   26.8248 H   0  0  0  0  0  0  0  0  0  0  0  0
   32.7443   36.6792   27.7298 H   0  0  0  0  0  0  0  0  0  0  0  0
   34.4396   36.5411   28.3074 H   0  0  0  0  0  0  0  0  0  0  0  0
   35.1279   37.4163   31.3575 H   0  0  0  0  0  0  0  0  0  0  0  0
   34.2106   39.2335   32.2535 H   0  0  0  0  0  0  0  0  0  0  0  0
   33.0371   40.0825   31.0697 H   0  0  0  0  0  0  0  0  0  0  0  0
  1  3  2  0  0  0  0
  1  7  1  0  0  0  0
  2 12  2  0  0  0  0
  2 18  1  0  0  0  0
  2 19  1  0  0  0  0
  3 13  1  0  0  0  0
  3 15  1  0  0  0  0
  4 17  1  0  0  0  0
  4 20  1  0  0  0  0
  4 21  2  0  0  0  0
  5  6  2  0  0  0  0
  5 10  1  0  0  0  0
  5 11  1  0  0  0  0
  6 12  1  0  0  0  0
  7  8  2  0  0  0  0
  7 22  1  0  0  0  0
  8  9  1  0  0  0  0
  9 13  2  0  0  0  0
 10 19  1  0  0  0  0
 10 20  2  0  0  0  0
 11 17  2  0  0  0  0
 12 16  1  0  0  0  0
 13 16  1  0  0  0  0
 14 19  1  0  0  0  0
 21 25  1  0  0  0  0
 23 24  1  0  0  0  0
 23 28  1  0  0  0  0
 24 25  1  0  0  0  0
 25 26  1  0  0  0  0
 26 27  1  0  0  0  0
 27 28  1  0  0  0  0
 28 29  1  0  0  0  0
 29 30  1  0  0  0  0
 29 31  2  0  0  0  0
  1 32  1  0  0  0  0
  6 33  1  0  0  0  0
  8 34  1  0  0  0  0
  9 35  1  0  0  0  0
 11 36  1  0  0  0  0
 14 37  1  0  0  0  0
 14 38  1  0  0  0  0
 14 39  1  0  0  0  0
 18 40  1  0  0  0  0
 23 41  1  0  0  0  0
 23 42  1  0  0  0  0
 24 43  1  0  0  0  0
 24 44  1  0  0  0  0
 25 45  1  0  0  0  0
 26 46  1  0  0  0  0
 26 47  1  0  0  0  0
 27 48  1  0  0  0  0
 27 49  1  0  0  0  0
 30 50  1  0  0  0  0
 31 51  1  0  0  0  0
 31 52  1  0  0  0  0
M  END
> <r_user_dG.exp>
-12.264

$$$$
p38a_2ee
  -OEChem-05192314073D
 Structure written by MMmdl.
 52 55  0     1  0  0  0  0  0999 V2000
   38.2632   36.7144   17.0134 C   0  0  0  0  0  0  0  0  0  0  0  0
   34.5448   34.9770   21.1828 C   0  0  0  0  0  0  0  0  0  0  0  0
   37.5969   36.1886   18.1373 C   0  0  0  0  0  0  0  0  0  0  0  0
   34.0445   38.9756   23.7378 C   0  0  0  0  0  0  0  0  0  0  0  0
   34.8025   37.8108   21.4407 C   0  0  3  0  0  0  0  0  0  0  0  0
   35.2536   37.1252   20.2344 C   0  0  0  0  0  0  0  0  0  0  0  0
   37.6232   36.7427   15.7594 C   0  0  0  0  0  0  0  0  0  0  0  0
   36.3272   36.2163   15.6228 C   0  0  0  0  0  0  0  0  0  0  0  0
   35.6719   35.6684   16.7395 C   0  0  0  0  0  0  0  0  0  0  0  0
   34.3067   37.0366   22.5109 C   0  0  0  0  0  0  0  0  0  0  0  0
   34.8522   39.2088   21.6169 C   0  0  0  0  0  0  0  0  0  0  0  0
   35.1646   35.7815   20.1251 C   0  0  0  0  0  0  0  0  0  0  0  0
   36.2931   35.6640   18.0028 C   0  0  0  0  0  0  0  0  0  0  0  0
   33.6690   34.8315   23.4618 C   0  0  0  0  0  0  0  0  0  0  0  0
   38.1961   36.1968   19.3280 F   0  0  0  0  0  0  0  0  0  0  0  0
   35.6498   35.0616   19.0536 O   0  0  0  0  0  0  0  0  0  0  0  0
   34.4789   39.7925   22.7772 N   0  0  0  0  0  0  0  0  0  0  0  0
   34.3290   33.7761   21.0235 O   0  0  0  0  0  0  0  0  0  0  0  0
   34.2121   35.6181   22.3415 N   0  0  0  0  0  0  0  0  0  0  0  0
   33.9306   37.6499   23.6560 N   0  0  0  0  0  0  0  0  0  0  0  0
   33.6717   39.5652   24.9268 N   0  0  0  0  0  0  0  0  0  0  0  0
   38.2365   37.2743   14.7019 F   0  0  0  0  0  0  0  0  0  0  0  0
   32.3864   39.3434   28.5029 C   0  0  0  0  0  0  0  0  0  0  0  0
   32.8826   39.9949   27.2021 C   0  0  0  0  0  0  0  0  0  0  0  0
   33.1625   38.9326   26.1269 C   0  0  0  0  0  0  0  0  0  0  0  0
   34.1671   37.8864   26.6357 C   0  0  0  0  0  0  0  0  0  0  0  0
   33.6709   37.2349   27.9364 C   0  0  0  0  0  0  0  0  0  0  0  0
   33.3911   38.2971   29.0117 N   0  0  0  0  0  0  0  0  0  0  0  0
   34.0185   38.2191   30.2384 C   0  0  0  0  0  0  0  0  0  0  0  0
   34.7890   37.3195   30.4753 O   0  0  0  0  0  0  0  0  0  0  0  0
   33.7272   39.2812   31.2889 C   0  0  0  0  0  0  0  0  0  0  0  0
   39.2681   37.0971   17.1136 H   0  0  0  0  0  0  0  0  0  0  0  0
   33.7886   37.8932   21.0222 H   0  0  0  0  0  0  0  0  0  0  0  0
   35.6644   37.6998   19.4174 H   0  0  0  0  0  0  0  0  0  0  0  0
   35.8354   36.2327   14.6614 H   0  0  0  0  0  0  0  0  0  0  0  0
   34.6837   35.2474   16.6272 H   0  0  0  0  0  0  0  0  0  0  0  0
   35.1976   39.8294   20.8033 H   0  0  0  0  0  0  0  0  0  0  0  0
   33.4566   35.4988   24.3101 H   0  0  0  0  0  0  0  0  0  0  0  0
   32.7402   34.3349   23.1446 H   0  0  0  0  0  0  0  0  0  0  0  0
   34.4045   34.0728   23.7675 H   0  0  0  0  0  0  0  0  0  0  0  0
   32.2584   40.1220   29.2693 H   0  0  0  0  0  0  0  0  0  0  0  0
   31.4203   38.8526   28.3139 H   0  0  0  0  0  0  0  0  0  0  0  0
   32.1138   40.6886   26.8310 H   0  0  0  0  0  0  0  0  0  0  0  0
   33.8091   40.5507   27.4086 H   0  0  0  0  0  0  0  0  0  0  0  0
   32.2176   38.4189   25.8962 H   0  0  0  0  0  0  0  0  0  0  0  0
   34.2952   37.1078   25.8693 H   0  0  0  0  0  0  0  0  0  0  0  0
   35.1332   38.3772   26.8248 H   0  0  0  0  0  0  0  0  0  0  0  0
   32.7443   36.6792   27.7298 H   0  0  0  0  0  0  0  0  0  0  0  0
   34.4396   36.5411   28.3074 H   0  0  0  0  0  0  0  0  0  0  0  0
   35.1279   37.4163   31.3575 H   0  0  0  0  0  0  0  0  0  0  0  0
   34.2106   39.2335   32.2535 H   0  0  0  0  0  0  0  0  0  0  0  0
   33.0371   40.0825   31.0697 H   0  0  0  0  0  0  0  0  0  0  0  0
  1  3  2  0  0  0  0
  1  7  1  0  0  0  0
  2 12  1  0  0  0  0
  2 18  2  0  0  0  0
  2 19  1  0  0  0  0
  3 13  1  0  0  0  0
  3 15  1  0  0  0  0
  4 17  1  0  0  0  0
  4 20  1  0  0  0  0
  4 21  2  0  0  0  0
  5  6  1  0  0  0  0
  5 10  1  0  0  0  0
  5 11  1  0  0  0  0
  6 12  2  0  0  0  0
  7  8  2  0  0  0  0
  7 22  1  0  0  0  0
  8  9  1  0  0  0  0
  9 13  2  0  0  0  0
 10 19  1  0  0  0  0
 10 20  2  0  0  0  0
 11 17  2  0  0  0  0
 12 16  1  0  0  0  0
 13 16  1  0  0  0  0
 14 19  1  0  0  0  0
 21 25  1  0  0  0  0
 23 24  1  0  0  0  0
 23 28  1  0  0  0  0
 24 25  1  0  0  0  0
 25 26  1  0  0  0  0
 26 27  1  0  0  0  0
 27 28  1  0  0  0  0
 28 29  1  0  0  0  0
 29 30  1  0  0  0  0
 29 31  2  0  0  0  0
  1 32  1  0  0  0  0
  5 33  1  0  0  0  0
  6 34  1  0  0  0  0
  8 35  1  0  0  0  0
  9 36  1  0  0  0  0
 11 37  1  0  0  0  0
 14 38  1  0  0  0  0
 14 39  1  0  0  0  0
 14 40  1  0  0  0  0
 23 41  1  0  0  0  0
 23 42  1  0  0  0  0
 24 43  1  0  0  0  0
 24 44  1  0  0  0  0
 25 45  1  0  0  0  0
 26 46  1  0  0  0  0
 26 47  1  0  0  0  0
 27 48  1  0  0  0  0
 27 49  1  0  0  0  0
 30 50  1  0  0  0  0
 31 51  1  0  0  0  0
 31 52  1  0  0  0  0
M  END
> <r_user_dG.exp>
-12.264

$$$$
p38a_2ee
  -OEChem-05192314073D
 Structure written by MMmdl.
 52 55  0     1  0  0  0  0  0999 V2000
   38.2632   36.7144   17.0134 C   0  0  0  0  0  0  0  0  0  0  0  0
   34.5448   34.9770   21.1828 C   0  0  0  0  0  0  0  0  0  0  0  0
   37.5969   36.1886   18.1373 C   0  0  0  0  0  0  0  0  0  0  0  0
   34.0445   38.9756   23.7378 C   0  0  0  0  0  0  0  0  0  0  0  0
   34.8025   37.8108   21.4407 C   0  0  0  0  0  0  0  0  0  0  0  0
   35.2536   37.1252   20.2344 C   0  0  0  0  0  0  0  0  0  0  0  0
   37.6232   36.7427   15.7594 C   0  0  0  0  0  0  0  0  0  0  0  0
   36.3272   36.2163   15.6228 C   0  0  0  0  0  0  0  0  0  0  0  0
   35.6719   35.6684   16.7395 C   0  0  0  0  0  0  0  0  0  0  0  0
   34.3067   37.0366   22.5109 C   0  0  0  0  0  0  0  0  0  0  0  0
   34.8522   39.2088   21.6169 C   0  0  0  0  0  0  0  0  0  0  0  0
   35.1646   35.7815   20.1251 C   0  0  3  0  0  0  0  0  0  0  0  0
   36.2931   35.6640   18.0028 C   0  0  0  0  0  0  0  0  0  0  0  0
   33.6690   34.8315   23.4618 C   0  0  0  0  0  0  0  0  0  0  0  0
   38.1961   36.1968   19.3280 F   0  0  0  0  0  0  0  0  0  0  0  0
   35.6498   35.0616   19.0536 O   0  0  0  0  0  0  0  0  0  0  0  0
   34.4789   39.7925   22.7772 N   0  0  0  0  0  0  0  0  0  0  0  0
   34.3290   33.7761   21.0235 O   0  0  0  0  0  0  0  0  0  0  0  0
   34.2121   35.6181   22.3415 N   0  0  0  0  0  0  0  0  0  0  0  0
   33.9306   37.6499   23.6560 N   0  0  0  0  0  0  0  0  0  0  0  0
   33.6717   39.5652   24.9268 N   0  0  0  0  0  0  0  0  0  0  0  0
   38.2365   37.2743   14.7019 F   0  0  0  0  0  0  0  0  0  0  0  0
   32.3864   39.3434   28.5029 C   0  0  0  0  0  0  0  0  0  0  0  0
   32.8826   39.9949   27.2021 C   0  0  0  0  0  0  0  0  0  0  0  0
   33.1625   38.9326   26.1269 C   0  0  0  0  0  0  0  0  0  0  0  0
   34.1671   37.8864   26.6357 C   0  0  0  0  0  0  0  0  0  0  0  0
   33.6709   37.2349   27.9364 C   0  0  0  0  0  0  0  0  0  0  0  0
   33.3911   38.2971   29.0117 N   0  0  0  0  0  0  0  0  0  0  0  0
   34.0185   38.2191   30.2384 C   0  0  0  0  0  0  0  0  0  0  0  0
   34.7890   37.3195   30.4753 O   0  0  0  0  0  0  0  0  0  0  0  0
   33.7272   39.2812   31.2889 C   0  0  0  0  0  0  0  0  0  0  0  0
   39.2681   37.0971   17.1136 H   0  0  0  0  0  0  0  0  0  0  0  0
   35.6644   37.6998   19.4174 H   0  0  0  0  0  0  0  0  0  0  0  0
   35.8354   36.2327   14.6614 H   0  0  0  0  0  0  0  0  0  0  0  0
   34.6837   35.2474   16.6272 H   0  0  0  0  0  0  0  0  0  0  0  0
   35.1976   39.8294   20.8033 H   0  0  0  0  0  0  0  0  0  0  0  0
   34.1907   35.8815   19.6236 H   0  0  0  0  0  0  0  0  0  0  0  0
   33.4566   35.4988   24.3101 H   0  0  0  0  0  0  0  0  0  0  0  0
   32.7402   34.3349   23.1446 H   0  0  0  0  0  0  0  0  0  0  0  0
   34.4045   34.0728   23.7675 H   0  0  0  0  0  0  0  0  0  0  0  0
   32.2584   40.1220   29.2693 H   0  0  0  0  0  0  0  0  0  0  0  0
   31.4203   38.8526   28.3139 H   0  0  0  0  0  0  0  0  0  0  0  0
   32.1138   40.6886   26.8310 H   0  0  0  0  0  0  0  0  0  0  0  0
   33.8091   40.5507   27.4086 H   0  0  0  0  0  0  0  0  0  0  0  0
   32.2176   38.4189   25.8962 H   0  0  0  0  0  0  0  0  0  0  0  0
   34.2952   37.1078   25.8693 H   0  0  0  0  0  0  0  0  0  0  0  0
   35.1332   38.3772   26.8248 H   0  0  0  0  0  0  0  0  0  0  0  0
   32.7443   36.6792   27.7298 H   0  0  0  0  0  0  0  0  0  0  0  0
   34.4396   36.5411   28.3074 H   0  0  0  0  0  0  0  0  0  0  0  0
   35.1279   37.4163   31.3575 H   0  0  0  0  0  0  0  0  0  0  0  0
   34.2106   39.2335   32.2535 H   0  0  0  0  0  0  0  0  0  0  0  0
   33.0371   40.0825   31.0697 H   0  0  0  0  0  0  0  0  0  0  0  0
  1  3  2  0  0  0  0
  1  7  1  0  0  0  0
  2 12  1  0  0  0  0
  2 18  2  0  0  0  0
  2 19  1  0  0  0  0
  3 13  1  0  0  0  0
  3 15  1  0  0  0  0
  4 17  1  0  0  0  0
  4 20  1  0  0  0  0
  4 21  2  0  0  0  0
  5  6  2  0  0  0  0
  5 10  1  0  0  0  0
  5 11  1  0  0  0  0
  6 12  1  0  0  0  0
  7  8  2  0  0  0  0
  7 22  1  0  0  0  0
  8  9  1  0  0  0  0
  9 13  2  0  0  0  0
 10 19  1  0  0  0  0
 10 20  2  0  0  0  0
 11 17  2  0  0  0  0
 12 16  1  0  0  0  0
 13 16  1  0  0  0  0
 14 19  1  0  0  0  0
 21 25  1  0  0  0  0
 23 24  1  0  0  0  0
 23 28  1  0  0  0  0
 24 25  1  0  0  0  0
 25 26  1  0  0  0  0
 26 27  1  0  0  0  0
 27 28  1  0  0  0  0
 28 29  1  0  0  0  0
 29 30  1  0  0  0  0
 29 31  2  0  0  0  0
  1 32  1  0  0  0  0
  6 33  1  0  0  0  0
  8 34  1  0  0  0  0
  9 35  1  0  0  0  0
 11 36  1  0  0  0  0
 12 37  1  0  0  0  0
 14 38  1  0  0  0  0
 14 39  1  0  0  0  0
 14 40  1  0  0  0  0
 23 41  1  0  0  0  0
 23 42  1  0  0  0  0
 24 43  1  0  0  0  0
 24 44  1  0  0  0  0
 25 45  1  0  0  0  0
 26 46  1  0  0  0  0
 26 47  1  0  0  0  0
 27 48  1  0  0  0  0
 27 49  1  0  0  0  0
 30 50  1  0  0  0  0
 31 51  1  0  0  0  0
 31 52  1  0  0  0  0
M  END
> <r_user_dG.exp>
-12.264

$$$$
