p38a_3flq
  -OEChem-05192314073D
 Structure written by MMmdl.
 47 49  0     1  0  0  0  0  0999 V2000
   34.7622   38.7439   23.9476 C   0  0  0  0  0  0  0  0  0  0  0  0
   35.2499   37.4721   21.6405 C   0  0  0  0  0  0  0  0  0  0  0  0
   35.5348   36.7418   20.4146 C   0  0  0  0  0  0  0  0  0  0  0  0
   35.0227   36.7418   22.8250 C   0  0  0  0  0  0  0  0  0  0  0  0
   35.5320   35.3906   20.3880 C   0  0  0  0  0  0  0  0  0  0  0  0
   33.7846   38.8689   26.3037 C   0  0  1  0  0  0  0  0  0  0  0  0
   34.5670   39.3018   27.5511 C   0  0  0  0  0  0  0  0  0  0  0  0
   31.2859   36.7201   25.6423 C   0  0  0  0  0  0  0  0  0  0  0  0
   35.0422   35.3092   22.7534 N   0  0  0  0  0  0  0  0  0  0  0  0
   32.3083   39.3132   26.3897 C   0  0  0  0  0  0  0  0  0  0  0  0
   37.8707   37.0007   14.6632 F   0  0  0  0  0  0  0  0  0  0  0  0
   37.3947   36.4157   15.7863 C   0  0  0  0  0  0  0  0  0  0  0  0
   36.1114   35.8372   15.7886 C   0  0  0  0  0  0  0  0  0  0  0  0
   35.6038   35.2536   16.9651 C   0  0  0  0  0  0  0  0  0  0  0  0
   38.1736   36.4029   16.9581 C   0  0  0  0  0  0  0  0  0  0  0  0
   37.6618   35.8347   18.1396 C   0  0  0  0  0  0  0  0  0  0  0  0
   38.4005   35.8692   19.2738 F   0  0  0  0  0  0  0  0  0  0  0  0
   36.3715   35.2572   18.1466 C   0  0  0  0  0  0  0  0  0  0  0  0
   35.8696   34.6526   19.2728 O   0  0  0  0  0  0  0  0  0  0  0  0
   35.1741   34.6161   21.5814 C   0  0  0  0  0  0  0  0  0  0  0  0
   34.9911   33.3993   21.5227 O   0  0  0  0  0  0  0  0  0  0  0  0
   35.2021   38.8782   21.7163 C   0  0  0  0  0  0  0  0  0  0  0  0
   34.9714   39.5160   22.8825 N   0  0  0  0  0  0  0  0  0  0  0  0
   34.7792   37.4089   23.9779 N   0  0  0  0  0  0  0  0  0  0  0  0
   34.8399   34.5573   24.0019 C   0  0  0  0  0  0  0  0  0  0  0  0
   34.4255   39.4035   25.1103 N   0  0  0  0  0  0  0  0  0  0  0  0
   31.1922   38.4913   25.1558 S   0  0  0  0  0  0  0  0  0  0  0  0
   29.8236   38.9620   25.4069 O   0  0  0  0  0  0  0  0  0  0  0  0
   31.7563   38.6165   23.8041 O   0  0  0  0  0  0  0  0  0  0  0  0
   35.7524   37.2895   19.5096 H   0  0  0  0  0  0  0  0  0  0  0  0
   33.8031   37.7701   26.2568 H   0  0  0  0  0  0  0  0  0  0  0  0
   35.6126   38.9722   27.4614 H   0  0  0  0  0  0  0  0  0  0  0  0
   34.5346   40.3975   27.6421 H   0  0  0  0  0  0  0  0  0  0  0  0
   34.1144   38.8461   28.4441 H   0  0  0  0  0  0  0  0  0  0  0  0
   30.6534   36.1209   24.9708 H   0  0  0  0  0  0  0  0  0  0  0  0
   32.3277   36.3747   25.5697 H   0  0  0  0  0  0  0  0  0  0  0  0
   30.9329   36.6052   26.6778 H   0  0  0  0  0  0  0  0  0  0  0  0
   31.9367   39.0814   27.3988 H   0  0  0  0  0  0  0  0  0  0  0  0
   32.2650   40.3997   26.2236 H   0  0  0  0  0  0  0  0  0  0  0  0
   35.5160   35.8410   14.8876 H   0  0  0  0  0  0  0  0  0  0  0  0
   34.6229   34.8017   16.9619 H   0  0  0  0  0  0  0  0  0  0  0  0
   39.1656   36.8297   16.9508 H   0  0  0  0  0  0  0  0  0  0  0  0
   35.3538   39.4596   20.8189 H   0  0  0  0  0  0  0  0  0  0  0  0
   34.8805   33.4784   23.7914 H   0  0  0  0  0  0  0  0  0  0  0  0
   35.6301   34.8205   24.7204 H   0  0  0  0  0  0  0  0  0  0  0  0
   33.8579   34.8111   24.4276 H   0  0  0  0  0  0  0  0  0  0  0  0
   35.2882   39.7872   25.4396 H   0  0  0  0  0  0  0  0  0  0  0  0
  1 23  2  0  0  0  0
  1 24  1  0  0  0  0
  1 26  1  0  0  0  0
  2  3  1  0  0  0  0
  2  4  1  0  0  0  0
  2 22  2  0  0  0  0
  3  5  2  0  0  0  0
  4  9  1  0  0  0  0
  4 24  2  0  0  0  0
  5 19  1  0  0  0  0
  5 20  1  0  0  0  0
  6  7  1  0  0  0  0
  6 10  1  0  0  0  0
  6 26  1  0  0  0  0
  8 27  1  0  0  0  0
  9 20  1  0  0  0  0
  9 25  1  0  0  0  0
 10 27  1  0  0  0  0
 11 12  1  0  0  0  0
 12 13  2  0  0  0  0
 12 15  1  0  0  0  0
 13 14  1  0  0  0  0
 14 18  2  0  0  0  0
 15 16  2  0  0  0  0
 16 17  1  0  0  0  0
 16 18  1  0  0  0  0
 18 19  1  0  0  0  0
 20 21  2  0  0  0  0
 22 23  1  0  0  0  0
 27 28  2  0  0  0  0
 27 29  2  0  0  0  0
  3 30  1  0  0  0  0
  6 31  1  0  0  0  0
  7 32  1  0  0  0  0
  7 33  1  0  0  0  0
  7 34  1  0  0  0  0
  8 35  1  0  0  0  0
  8 36  1  0  0  0  0
  8 37  1  0  0  0  0
 10 38  1  0  0  0  0
 10 39  1  0  0  0  0
 13 40  1  0  0  0  0
 14 41  1  0  0  0  0
 15 42  1  0  0  0  0
 22 43  1  0  0  0  0
 25 44  1  0  0  0  0
 25 45  1  0  0  0  0
 25 46  1  0  0  0  0
 26 47  1  0  0  0  0
M  END
> <r_user_dG.exp>
-9.93099

$$$$
p38a_3flq
  -OEChem-05192314073D
 Structure written by MMmdl.
 47 49  0     1  0  0  0  0  0999 V2000
   34.7622   38.7439   23.9476 C   0  0  0  0  0  0  0  0  0  0  0  0
   35.2499   37.4721   21.6405 C   0  0  0  0  0  0  0  0  0  0  0  0
   35.5348   36.7418   20.4146 C   0  0  0  0  0  0  0  0  0  0  0  0
   35.0227   36.7418   22.8250 C   0  0  0  0  0  0  0  0  0  0  0  0
   35.5320   35.3906   20.3880 C   0  0  0  0  0  0  0  0  0  0  0  0
   33.7846   38.8689   26.3037 C   0  0  1  0  0  0  0  0  0  0  0  0
   34.5670   39.3018   27.5511 C   0  0  0  0  0  0  0  0  0  0  0  0
   31.2859   36.7201   25.6423 C   0  0  0  0  0  0  0  0  0  0  0  0
   35.0422   35.3092   22.7534 N   0  0  0  0  0  0  0  0  0  0  0  0
   32.3083   39.3132   26.3897 C   0  0  0  0  0  0  0  0  0  0  0  0
   37.8707   37.0007   14.6632 F   0  0  0  0  0  0  0  0  0  0  0  0
   37.3947   36.4157   15.7863 C   0  0  0  0  0  0  0  0  0  0  0  0
   36.1114   35.8372   15.7886 C   0  0  0  0  0  0  0  0  0  0  0  0
   35.6038   35.2536   16.9651 C   0  0  0  0  0  0  0  0  0  0  0  0
   38.1736   36.4029   16.9581 C   0  0  0  0  0  0  0  0  0  0  0  0
   37.6618   35.8347   18.1396 C   0  0  0  0  0  0  0  0  0  0  0  0
   38.4005   35.8692   19.2738 F   0  0  0  0  0  0  0  0  0  0  0  0
   36.3715   35.2572   18.1466 C   0  0  0  0  0  0  0  0  0  0  0  0
   35.8696   34.6526   19.2728 O   0  0  0  0  0  0  0  0  0  0  0  0
   35.1741   34.6161   21.5814 C   0  0  0  0  0  0  0  0  0  0  0  0
   34.9911   33.3993   21.5227 O   0  0  0  0  0  0  0  0  0  0  0  0
   35.2021   38.8782   21.7163 C   0  0  0  0  0  0  0  0  0  0  0  0
   34.9714   39.5160   22.8825 N   0  0  0  0  0  0  0  0  0  0  0  0
   34.7792   37.4089   23.9779 N   0  0  0  0  0  0  0  0  0  0  0  0
   34.8399   34.5573   24.0019 C   0  0  0  0  0  0  0  0  0  0  0  0
   34.4255   39.4035   25.1103 N   0  0  0  0  0  0  0  0  0  0  0  0
   31.1922   38.4913   25.1558 S   0  0  0  0  0  0  0  0  0  0  0  0
   29.8236   38.9620   25.4069 O   0  0  0  0  0  0  0  0  0  0  0  0
   31.7563   38.6165   23.8041 O   0  0  0  0  0  0  0  0  0  0  0  0
   35.7524   37.2895   19.5096 H   0  0  0  0  0  0  0  0  0  0  0  0
   33.8031   37.7701   26.2568 H   0  0  0  0  0  0  0  0  0  0  0  0
   35.6126   38.9722   27.4614 H   0  0  0  0  0  0  0  0  0  0  0  0
   34.5346   40.3975   27.6421 H   0  0  0  0  0  0  0  0  0  0  0  0
   34.1144   38.8461   28.4441 H   0  0  0  0  0  0  0  0  0  0  0  0
   30.6534   36.1209   24.9708 H   0  0  0  0  0  0  0  0  0  0  0  0
   32.3277   36.3747   25.5697 H   0  0  0  0  0  0  0  0  0  0  0  0
   30.9329   36.6052   26.6778 H   0  0  0  0  0  0  0  0  0  0  0  0
   31.9367   39.0814   27.3988 H   0  0  0  0  0  0  0  0  0  0  0  0
   32.2650   40.3997   26.2236 H   0  0  0  0  0  0  0  0  0  0  0  0
   35.5160   35.8410   14.8876 H   0  0  0  0  0  0  0  0  0  0  0  0
   34.6229   34.8017   16.9619 H   0  0  0  0  0  0  0  0  0  0  0  0
   39.1656   36.8297   16.9508 H   0  0  0  0  0  0  0  0  0  0  0  0
   35.3538   39.4596   20.8189 H   0  0  0  0  0  0  0  0  0  0  0  0
   34.6161   36.9139   24.8313 H   0  0  0  0  0  0  0  0  0  0  0  0
   34.8805   33.4784   23.7914 H   0  0  0  0  0  0  0  0  0  0  0  0
   35.6301   34.8205   24.7204 H   0  0  0  0  0  0  0  0  0  0  0  0
   33.8579   34.8111   24.4276 H   0  0  0  0  0  0  0  0  0  0  0  0
  1 23  1  0  0  0  0
  1 24  1  0  0  0  0
  1 26  2  0  0  0  0
  2  3  1  0  0  0  0
  2  4  2  0  0  0  0
  2 22  1  0  0  0  0
  3  5  2  0  0  0  0
  4  9  1  0  0  0  0
  4 24  1  0  0  0  0
  5 19  1  0  0  0  0
  5 20  1  0  0  0  0
  6  7  1  0  0  0  0
  6 10  1  0  0  0  0
  6 26  1  0  0  0  0
  8 27  1  0  0  0  0
  9 20  1  0  0  0  0
  9 25  1  0  0  0  0
 10 27  1  0  0  0  0
 11 12  1  0  0  0  0
 12 13  2  0  0  0  0
 12 15  1  0  0  0  0
 13 14  1  0  0  0  0
 14 18  2  0  0  0  0
 15 16  2  0  0  0  0
 16 17  1  0  0  0  0
 16 18  1  0  0  0  0
 18 19  1  0  0  0  0
 20 21  2  0  0  0  0
 22 23  2  0  0  0  0
 27 28  2  0  0  0  0
 27 29  2  0  0  0  0
  3 30  1  0  0  0  0
  6 31  1  0  0  0  0
  7 32  1  0  0  0  0
  7 33  1  0  0  0  0
  7 34  1  0  0  0  0
  8 35  1  0  0  0  0
  8 36  1  0  0  0  0
  8 37  1  0  0  0  0
 10 38  1  0  0  0  0
 10 39  1  0  0  0  0
 13 40  1  0  0  0  0
 14 41  1  0  0  0  0
 15 42  1  0  0  0  0
 22 43  1  0  0  0  0
 24 44  1  0  0  0  0
 25 45  1  0  0  0  0
 25 46  1  0  0  0  0
 25 47  1  0  0  0  0
M  END
> <r_user_dG.exp>
-9.93099

$$$$
p38a_3flq
  -OEChem-05192314073D
 Structure written by MMmdl.
 47 49  0     1  0  0  0  0  0999 V2000
   34.7622   38.7439   23.9476 C   0  0  0  0  0  0  0  0  0  0  0  0
   35.2499   37.4721   21.6405 C   0  0  0  0  0  0  0  0  0  0  0  0
   35.5348   36.7418   20.4146 C   0  0  0  0  0  0  0  0  0  0  0  0
   35.0227   36.7418   22.8250 C   0  0  0  0  0  0  0  0  0  0  0  0
   35.5320   35.3906   20.3880 C   0  0  0  0  0  0  0  0  0  0  0  0
   33.7846   38.8689   26.3037 C   0  0  1  0  0  0  0  0  0  0  0  0
   34.5670   39.3018   27.5511 C   0  0  0  0  0  0  0  0  0  0  0  0
   31.2859   36.7201   25.6423 C   0  0  0  0  0  0  0  0  0  0  0  0
   35.0422   35.3092   22.7534 N   0  0  0  0  0  0  0  0  0  0  0  0
   32.3083   39.3132   26.3897 C   0  0  0  0  0  0  0  0  0  0  0  0
   37.8707   37.0007   14.6632 F   0  0  0  0  0  0  0  0  0  0  0  0
   37.3947   36.4157   15.7863 C   0  0  0  0  0  0  0  0  0  0  0  0
   36.1114   35.8372   15.7886 C   0  0  0  0  0  0  0  0  0  0  0  0
   35.6038   35.2536   16.9651 C   0  0  0  0  0  0  0  0  0  0  0  0
   38.1736   36.4029   16.9581 C   0  0  0  0  0  0  0  0  0  0  0  0
   37.6618   35.8347   18.1396 C   0  0  0  0  0  0  0  0  0  0  0  0
   38.4005   35.8692   19.2738 F   0  0  0  0  0  0  0  0  0  0  0  0
   36.3715   35.2572   18.1466 C   0  0  0  0  0  0  0  0  0  0  0  0
   35.8696   34.6526   19.2728 O   0  0  0  0  0  0  0  0  0  0  0  0
   35.1741   34.6161   21.5814 C   0  0  0  0  0  0  0  0  0  0  0  0
   34.9911   33.3993   21.5227 O   0  0  0  0  0  0  0  0  0  0  0  0
   35.2021   38.8782   21.7163 C   0  0  0  0  0  0  0  0  0  0  0  0
   34.9714   39.5160   22.8825 N   0  0  0  0  0  0  0  0  0  0  0  0
   34.7792   37.4089   23.9779 N   0  0  0  0  0  0  0  0  0  0  0  0
   34.8399   34.5573   24.0019 C   0  0  0  0  0  0  0  0  0  0  0  0
   34.4255   39.4035   25.1103 N   0  0  0  0  0  0  0  0  0  0  0  0
   31.1922   38.4913   25.1558 S   0  0  0  0  0  0  0  0  0  0  0  0
   29.8236   38.9620   25.4069 O   0  0  0  0  0  0  0  0  0  0  0  0
   31.7563   38.6165   23.8041 O   0  0  0  0  0  0  0  0  0  0  0  0
   35.7524   37.2895   19.5096 H   0  0  0  0  0  0  0  0  0  0  0  0
   33.8031   37.7701   26.2568 H   0  0  0  0  0  0  0  0  0  0  0  0
   35.6126   38.9722   27.4614 H   0  0  0  0  0  0  0  0  0  0  0  0
   34.5346   40.3975   27.6421 H   0  0  0  0  0  0  0  0  0  0  0  0
   34.1144   38.8461   28.4441 H   0  0  0  0  0  0  0  0  0  0  0  0
   30.6534   36.1209   24.9708 H   0  0  0  0  0  0  0  0  0  0  0  0
   32.3277   36.3747   25.5697 H   0  0  0  0  0  0  0  0  0  0  0  0
   30.9329   36.6052   26.6778 H   0  0  0  0  0  0  0  0  0  0  0  0
   31.9367   39.0814   27.3988 H   0  0  0  0  0  0  0  0  0  0  0  0
   32.2650   40.3997   26.2236 H   0  0  0  0  0  0  0  0  0  0  0  0
   35.5160   35.8410   14.8876 H   0  0  0  0  0  0  0  0  0  0  0  0
   34.6229   34.8017   16.9619 H   0  0  0  0  0  0  0  0  0  0  0  0
   39.1656   36.8297   16.9508 H   0  0  0  0  0  0  0  0  0  0  0  0
   35.3538   39.4596   20.8189 H   0  0  0  0  0  0  0  0  0  0  0  0
   34.9582   40.5140   22.9440 H   0  0  0  0  0  0  0  0  0  0  0  0
   34.8805   33.4784   23.7914 H   0  0  0  0  0  0  0  0  0  0  0  0
   35.6301   34.8205   24.7204 H   0  0  0  0  0  0  0  0  0  0  0  0
   33.8579   34.8111   24.4276 H   0  0  0  0  0  0  0  0  0  0  0  0
  1 23  1  0  0  0  0
  1 24  1  0  0  0  0
  1 26  2  0  0  0  0
  2  3  1  0  0  0  0
  2  4  1  0  0  0  0
  2 22  2  0  0  0  0
  3  5  2  0  0  0  0
  4  9  1  0  0  0  0
  4 24  2  0  0  0  0
  5 19  1  0  0  0  0
  5 20  1  0  0  0  0
  6  7  1  0  0  0  0
  6 10  1  0  0  0  0
  6 26  1  0  0  0  0
  8 27  1  0  0  0  0
  9 20  1  0  0  0  0
  9 25  1  0  0  0  0
 10 27  1  0  0  0  0
 11 12  1  0  0  0  0
 12 13  2  0  0  0  0
 12 15  1  0  0  0  0
 13 14  1  0  0  0  0
 14 18  2  0  0  0  0
 15 16  2  0  0  0  0
 16 17  1  0  0  0  0
 16 18  1  0  0  0  0
 18 19  1  0  0  0  0
 20 21  2  0  0  0  0
 22 23  1  0  0  0  0
 27 28  2  0  0  0  0
 27 29  2  0  0  0  0
  3 30  1  0  0  0  0
  6 31  1  0  0  0  0
  7 32  1  0  0  0  0
  7 33  1  0  0  0  0
  7 34  1  0  0  0  0
  8 35  1  0  0  0  0
  8 36  1  0  0  0  0
  8 37  1  0  0  0  0
 10 38  1  0  0  0  0
 10 39  1  0  0  0  0
 13 40  1  0  0  0  0
 14 41  1  0  0  0  0
 15 42  1  0  0  0  0
 22 43  1  0  0  0  0
 23 44  1  0  0  0  0
 25 45  1  0  0  0  0
 25 46  1  0  0  0  0
 25 47  1  0  0  0  0
M  END
> <r_user_dG.exp>
-9.93099

$$$$
p38a_3flq
  -OEChem-05192314073D
 Structure written by MMmdl.
 47 49  0     1  0  0  0  0  0999 V2000
   34.7622   38.7439   23.9476 C   0  0  0  0  0  0  0  0  0  0  0  0
   35.2499   37.4721   21.6405 C   0  0  0  0  0  0  0  0  0  0  0  0
   35.5348   36.7418   20.4146 C   0  0  0  0  0  0  0  0  0  0  0  0
   35.0227   36.7418   22.8250 C   0  0  0  0  0  0  0  0  0  0  0  0
   35.5320   35.3906   20.3880 C   0  0  0  0  0  0  0  0  0  0  0  0
   33.7846   38.8689   26.3037 C   0  0  1  0  0  0  0  0  0  0  0  0
   34.5670   39.3018   27.5511 C   0  0  0  0  0  0  0  0  0  0  0  0
   31.2859   36.7201   25.6423 C   0  0  0  0  0  0  0  0  0  0  0  0
   35.0422   35.3092   22.7534 N   0  0  0  0  0  0  0  0  0  0  0  0
   32.3083   39.3132   26.3897 C   0  0  0  0  0  0  0  0  0  0  0  0
   37.8707   37.0007   14.6632 F   0  0  0  0  0  0  0  0  0  0  0  0
   37.3947   36.4157   15.7863 C   0  0  0  0  0  0  0  0  0  0  0  0
   36.1114   35.8372   15.7886 C   0  0  0  0  0  0  0  0  0  0  0  0
   35.6038   35.2536   16.9651 C   0  0  0  0  0  0  0  0  0  0  0  0
   38.1736   36.4029   16.9581 C   0  0  0  0  0  0  0  0  0  0  0  0
   37.6618   35.8347   18.1396 C   0  0  0  0  0  0  0  0  0  0  0  0
   38.4005   35.8692   19.2738 F   0  0  0  0  0  0  0  0  0  0  0  0
   36.3715   35.2572   18.1466 C   0  0  0  0  0  0  0  0  0  0  0  0
   35.8696   34.6526   19.2728 O   0  0  0  0  0  0  0  0  0  0  0  0
   35.1741   34.6161   21.5814 C   0  0  0  0  0  0  0  0  0  0  0  0
   34.9911   33.3993   21.5227 O   0  0  0  0  0  0  0  0  0  0  0  0
   35.2021   38.8782   21.7163 C   0  0  0  0  0  0  0  0  0  0  0  0
   34.9714   39.5160   22.8825 N   0  0  0  0  0  0  0  0  0  0  0  0
   34.7792   37.4089   23.9779 N   0  0  0  0  0  0  0  0  0  0  0  0
   34.8399   34.5573   24.0019 C   0  0  0  0  0  0  0  0  0  0  0  0
   34.4255   39.4035   25.1103 N   0  0  0  0  0  0  0  0  0  0  0  0
   31.1922   38.4913   25.1558 S   0  0  0  0  0  0  0  0  0  0  0  0
   29.8236   38.9620   25.4069 O   0  0  0  0  0  0  0  0  0  0  0  0
   31.7563   38.6165   23.8041 O   0  0  0  0  0  0  0  0  0  0  0  0
   35.7524   37.2895   19.5096 H   0  0  0  0  0  0  0  0  0  0  0  0
   33.8031   37.7701   26.2568 H   0  0  0  0  0  0  0  0  0  0  0  0
   35.6126   38.9722   27.4614 H   0  0  0  0  0  0  0  0  0  0  0  0
   34.5346   40.3975   27.6421 H   0  0  0  0  0  0  0  0  0  0  0  0
   34.1144   38.8461   28.4441 H   0  0  0  0  0  0  0  0  0  0  0  0
   30.6534   36.1209   24.9708 H   0  0  0  0  0  0  0  0  0  0  0  0
   32.3277   36.3747   25.5697 H   0  0  0  0  0  0  0  0  0  0  0  0
   30.9329   36.6052   26.6778 H   0  0  0  0  0  0  0  0  0  0  0  0
   31.9367   39.0814   27.3988 H   0  0  0  0  0  0  0  0  0  0  0  0
   32.2650   40.3997   26.2236 H   0  0  0  0  0  0  0  0  0  0  0  0
   35.5160   35.8410   14.8876 H   0  0  0  0  0  0  0  0  0  0  0  0
   34.6229   34.8017   16.9619 H   0  0  0  0  0  0  0  0  0  0  0  0
   39.1656   36.8297   16.9508 H   0  0  0  0  0  0  0  0  0  0  0  0
   34.7692   33.0700   22.3857 H   0  0  0  0  0  0  0  0  0  0  0  0
   35.3538   39.4596   20.8189 H   0  0  0  0  0  0  0  0  0  0  0  0
   34.8805   33.4784   23.7914 H   0  0  0  0  0  0  0  0  0  0  0  0
   35.6301   34.8205   24.7204 H   0  0  0  0  0  0  0  0  0  0  0  0
   33.8579   34.8111   24.4276 H   0  0  0  0  0  0  0  0  0  0  0  0
  1 23  1  0  0  0  0
  1 24  1  0  0  0  0
  1 26  2  0  0  0  0
  2  3  2  0  0  0  0
  2  4  1  0  0  0  0
  2 22  1  0  0  0  0
  3  5  1  0  0  0  0
  4  9  1  0  0  0  0
  4 24  2  0  0  0  0
  5 19  1  0  0  0  0
  5 20  2  0  0  0  0
  6  7  1  0  0  0  0
  6 10  1  0  0  0  0
  6 26  1  0  0  0  0
  8 27  1  0  0  0  0
  9 20  1  0  0  0  0
  9 25  1  0  0  0  0
 10 27  1  0  0  0  0
 11 12  1  0  0  0  0
 12 13  2  0  0  0  0
 12 15  1  0  0  0  0
 13 14  1  0  0  0  0
 14 18  2  0  0  0  0
 15 16  2  0  0  0  0
 16 17  1  0  0  0  0
 16 18  1  0  0  0  0
 18 19  1  0  0  0  0
 20 21  1  0  0  0  0
 22 23  2  0  0  0  0
 27 28  2  0  0  0  0
 27 29  2  0  0  0  0
  3 30  1  0  0  0  0
  6 31  1  0  0  0  0
  7 32  1  0  0  0  0
  7 33  1  0  0  0  0
  7 34  1  0  0  0  0
  8 35  1  0  0  0  0
  8 36  1  0  0  0  0
  8 37  1  0  0  0  0
 10 38  1  0  0  0  0
 10 39  1  0  0  0  0
 13 40  1  0  0  0  0
 14 41  1  0  0  0  0
 15 42  1  0  0  0  0
 21 43  1  0  0  0  0
 22 44  1  0  0  0  0
 25 45  1  0  0  0  0
 25 46  1  0  0  0  0
 25 47  1  0  0  0  0
M  END
> <r_user_dG.exp>
-9.93099

$$$$
p38a_3flq
  -OEChem-05192314073D
 Structure written by MMmdl.
 47 49  0     1  0  0  0  0  0999 V2000
   34.7622   38.7439   23.9476 C   0  0  0  0  0  0  0  0  0  0  0  0
   35.2499   37.4721   21.6405 C   0  0  0  0  0  0  0  0  0  0  0  0
   35.5348   36.7418   20.4146 C   0  0  0  0  0  0  0  0  0  0  0  0
   35.0227   36.7418   22.8250 C   0  0  0  0  0  0  0  0  0  0  0  0
   35.5320   35.3906   20.3880 C   0  0  0  0  0  0  0  0  0  0  0  0
   33.7846   38.8689   26.3037 C   0  0  1  0  0  0  0  0  0  0  0  0
   34.5670   39.3018   27.5511 C   0  0  0  0  0  0  0  0  0  0  0  0
   31.2859   36.7201   25.6423 C   0  0  0  0  0  0  0  0  0  0  0  0
   35.0422   35.3092   22.7534 N   0  0  0  0  0  0  0  0  0  0  0  0
   32.3083   39.3132   26.3897 C   0  0  0  0  0  0  0  0  0  0  0  0
   37.8707   37.0007   14.6632 F   0  0  0  0  0  0  0  0  0  0  0  0
   37.3947   36.4157   15.7863 C   0  0  0  0  0  0  0  0  0  0  0  0
   36.1114   35.8372   15.7886 C   0  0  0  0  0  0  0  0  0  0  0  0
   35.6038   35.2536   16.9651 C   0  0  0  0  0  0  0  0  0  0  0  0
   38.1736   36.4029   16.9581 C   0  0  0  0  0  0  0  0  0  0  0  0
   37.6618   35.8347   18.1396 C   0  0  0  0  0  0  0  0  0  0  0  0
   38.4005   35.8692   19.2738 F   0  0  0  0  0  0  0  0  0  0  0  0
   36.3715   35.2572   18.1466 C   0  0  0  0  0  0  0  0  0  0  0  0
   35.8696   34.6526   19.2728 O   0  0  0  0  0  0  0  0  0  0  0  0
   35.1741   34.6161   21.5814 C   0  0  0  0  0  0  0  0  0  0  0  0
   34.9911   33.3993   21.5227 O   0  0  0  0  0  0  0  0  0  0  0  0
   35.2021   38.8782   21.7163 C   0  0  0  0  0  0  0  0  0  0  0  0
   34.9714   39.5160   22.8825 N   0  0  0  0  0  0  0  0  0  0  0  0
   34.7792   37.4089   23.9779 N   0  0  0  0  0  0  0  0  0  0  0  0
   34.8399   34.5573   24.0019 C   0  0  0  0  0  0  0  0  0  0  0  0
   34.4255   39.4035   25.1103 N   0  0  0  0  0  0  0  0  0  0  0  0
   31.1922   38.4913   25.1558 S   0  0  0  0  0  0  0  0  0  0  0  0
   29.8236   38.9620   25.4069 O   0  0  0  0  0  0  0  0  0  0  0  0
   31.7563   38.6165   23.8041 O   0  0  0  0  0  0  0  0  0  0  0  0
   34.1743   37.4438   21.4120 H   0  0  0  0  0  0  0  0  0  0  0  0
   35.7524   37.2895   19.5096 H   0  0  0  0  0  0  0  0  0  0  0  0
   33.8031   37.7701   26.2568 H   0  0  0  0  0  0  0  0  0  0  0  0
   35.6126   38.9722   27.4614 H   0  0  0  0  0  0  0  0  0  0  0  0
   34.5346   40.3975   27.6421 H   0  0  0  0  0  0  0  0  0  0  0  0
   34.1144   38.8461   28.4441 H   0  0  0  0  0  0  0  0  0  0  0  0
   30.6534   36.1209   24.9708 H   0  0  0  0  0  0  0  0  0  0  0  0
   32.3277   36.3747   25.5697 H   0  0  0  0  0  0  0  0  0  0  0  0
   30.9329   36.6052   26.6778 H   0  0  0  0  0  0  0  0  0  0  0  0
   31.9367   39.0814   27.3988 H   0  0  0  0  0  0  0  0  0  0  0  0
   32.2650   40.3997   26.2236 H   0  0  0  0  0  0  0  0  0  0  0  0
   35.5160   35.8410   14.8876 H   0  0  0  0  0  0  0  0  0  0  0  0
   34.6229   34.8017   16.9619 H   0  0  0  0  0  0  0  0  0  0  0  0
   39.1656   36.8297   16.9508 H   0  0  0  0  0  0  0  0  0  0  0  0
   35.3538   39.4596   20.8189 H   0  0  0  0  0  0  0  0  0  0  0  0
   34.8805   33.4784   23.7914 H   0  0  0  0  0  0  0  0  0  0  0  0
   35.6301   34.8205   24.7204 H   0  0  0  0  0  0  0  0  0  0  0  0
   33.8579   34.8111   24.4276 H   0  0  0  0  0  0  0  0  0  0  0  0
  1 23  1  0  0  0  0
  1 24  1  0  0  0  0
  1 26  2  0  0  0  0
  2  3  1  0  0  0  0
  2  4  1  0  0  0  0
  2 22  1  0  0  0  0
  3  5  2  0  0  0  0
  4  9  1  0  0  0  0
  4 24  2  0  0  0  0
  5 19  1  0  0  0  0
  5 20  1  0  0  0  0
  6  7  1  0  0  0  0
  6 10  1  0  0  0  0
  6 26  1  0  0  0  0
  8 27  1  0  0  0  0
  9 20  1  0  0  0  0
  9 25  1  0  0  0  0
 10 27  1  0  0  0  0
 11 12  1  0  0  0  0
 12 13  2  0  0  0  0
 12 15  1  0  0  0  0
 13 14  1  0  0  0  0
 14 18  2  0  0  0  0
 15 16  2  0  0  0  0
 16 17  1  0  0  0  0
 16 18  1  0  0  0  0
 18 19  1  0  0  0  0
 20 21  2  0  0  0  0
 22 23  2  0  0  0  0
 27 28  2  0  0  0  0
 27 29  2  0  0  0  0
  2 30  1  0  0  0  0
  3 31  1  0  0  0  0
  6 32  1  0  0  0  0
  7 33  1  0  0  0  0
  7 34  1  0  0  0  0
  7 35  1  0  0  0  0
  8 36  1  0  0  0  0
  8 37  1  0  0  0  0
  8 38  1  0  0  0  0
 10 39  1  0  0  0  0
 10 40  1  0  0  0  0
 13 41  1  0  0  0  0
 14 42  1  0  0  0  0
 15 43  1  0  0  0  0
 22 44  1  0  0  0  0
 25 45  1  0  0  0  0
 25 46  1  0  0  0  0
 25 47  1  0  0  0  0
M  END
> <r_user_dG.exp>
-9.93099

$$$$
p38a_3flq
  -OEChem-05192314073D
 Structure written by MMmdl.
 47 49  0     1  0  0  0  0  0999 V2000
   34.7622   38.7439   23.9476 C   0  0  0  0  0  0  0  0  0  0  0  0
   35.2499   37.4721   21.6405 C   0  0  0  0  0  0  0  0  0  0  0  0
   35.5348   36.7418   20.4146 C   0  0  0  0  0  0  0  0  0  0  0  0
   35.0227   36.7418   22.8250 C   0  0  0  0  0  0  0  0  0  0  0  0
   35.5320   35.3906   20.3880 C   0  0  0  0  0  0  0  0  0  0  0  0
   33.7846   38.8689   26.3037 C   0  0  1  0  0  0  0  0  0  0  0  0
   34.5670   39.3018   27.5511 C   0  0  0  0  0  0  0  0  0  0  0  0
   31.2859   36.7201   25.6423 C   0  0  0  0  0  0  0  0  0  0  0  0
   35.0422   35.3092   22.7534 N   0  0  0  0  0  0  0  0  0  0  0  0
   32.3083   39.3132   26.3897 C   0  0  0  0  0  0  0  0  0  0  0  0
   37.8707   37.0007   14.6632 F   0  0  0  0  0  0  0  0  0  0  0  0
   37.3947   36.4157   15.7863 C   0  0  0  0  0  0  0  0  0  0  0  0
   36.1114   35.8372   15.7886 C   0  0  0  0  0  0  0  0  0  0  0  0
   35.6038   35.2536   16.9651 C   0  0  0  0  0  0  0  0  0  0  0  0
   38.1736   36.4029   16.9581 C   0  0  0  0  0  0  0  0  0  0  0  0
   37.6618   35.8347   18.1396 C   0  0  0  0  0  0  0  0  0  0  0  0
   38.4005   35.8692   19.2738 F   0  0  0  0  0  0  0  0  0  0  0  0
   36.3715   35.2572   18.1466 C   0  0  0  0  0  0  0  0  0  0  0  0
   35.8696   34.6526   19.2728 O   0  0  0  0  0  0  0  0  0  0  0  0
   35.1741   34.6161   21.5814 C   0  0  0  0  0  0  0  0  0  0  0  0
   34.9911   33.3993   21.5227 O   0  0  0  0  0  0  0  0  0  0  0  0
   35.2021   38.8782   21.7163 C   0  0  0  0  0  0  0  0  0  0  0  0
   34.9714   39.5160   22.8825 N   0  0  0  0  0  0  0  0  0  0  0  0
   34.7792   37.4089   23.9779 N   0  0  0  0  0  0  0  0  0  0  0  0
   34.8399   34.5573   24.0019 C   0  0  0  0  0  0  0  0  0  0  0  0
   34.4255   39.4035   25.1103 N   0  0  0  0  0  0  0  0  0  0  0  0
   31.1922   38.4913   25.1558 S   0  0  0  0  0  0  0  0  0  0  0  0
   29.8236   38.9620   25.4069 O   0  0  0  0  0  0  0  0  0  0  0  0
   31.7563   38.6165   23.8041 O   0  0  0  0  0  0  0  0  0  0  0  0
   35.7524   37.2895   19.5096 H   0  0  0  0  0  0  0  0  0  0  0  0
   34.4787   35.3952   20.0708 H   0  0  0  0  0  0  0  0  0  0  0  0
   33.8031   37.7701   26.2568 H   0  0  0  0  0  0  0  0  0  0  0  0
   35.6126   38.9722   27.4614 H   0  0  0  0  0  0  0  0  0  0  0  0
   34.5346   40.3975   27.6421 H   0  0  0  0  0  0  0  0  0  0  0  0
   34.1144   38.8461   28.4441 H   0  0  0  0  0  0  0  0  0  0  0  0
   30.6534   36.1209   24.9708 H   0  0  0  0  0  0  0  0  0  0  0  0
   32.3277   36.3747   25.5697 H   0  0  0  0  0  0  0  0  0  0  0  0
   30.9329   36.6052   26.6778 H   0  0  0  0  0  0  0  0  0  0  0  0
   31.9367   39.0814   27.3988 H   0  0  0  0  0  0  0  0  0  0  0  0
   32.2650   40.3997   26.2236 H   0  0  0  0  0  0  0  0  0  0  0  0
   35.5160   35.8410   14.8876 H   0  0  0  0  0  0  0  0  0  0  0  0
   34.6229   34.8017   16.9619 H   0  0  0  0  0  0  0  0  0  0  0  0
   39.1656   36.8297   16.9508 H   0  0  0  0  0  0  0  0  0  0  0  0
   35.3538   39.4596   20.8189 H   0  0  0  0  0  0  0  0  0  0  0  0
   34.8805   33.4784   23.7914 H   0  0  0  0  0  0  0  0  0  0  0  0
   35.6301   34.8205   24.7204 H   0  0  0  0  0  0  0  0  0  0  0  0
   33.8579   34.8111   24.4276 H   0  0  0  0  0  0  0  0  0  0  0  0
  1 23  1  0  0  0  0
  1 24  1  0  0  0  0
  1 26  2  0  0  0  0
  2  3  2  0  0  0  0
  2  4  1  0  0  0  0
  2 22  1  0  0  0  0
  3  5  1  0  0  0  0
  4  9  1  0  0  0  0
  4 24  2  0  0  0  0
  5 19  1  0  0  0  0
  5 20  1  0  0  0  0
  6  7  1  0  0  0  0
  6 10  1  0  0  0  0
  6 26  1  0  0  0  0
  8 27  1  0  0  0  0
  9 20  1  0  0  0  0
  9 25  1  0  0  0  0
 10 27  1  0  0  0  0
 11 12  1  0  0  0  0
 12 13  2  0  0  0  0
 12 15  1  0  0  0  0
 13 14  1  0  0  0  0
 14 18  2  0  0  0  0
 15 16  2  0  0  0  0
 16 17  1  0  0  0  0
 16 18  1  0  0  0  0
 18 19  1  0  0  0  0
 20 21  2  0  0  0  0
 22 23  2  0  0  0  0
 27 28  2  0  0  0  0
 27 29  2  0  0  0  0
  3 30  1  0  0  0  0
  5 31  1  0  0  0  0
  6 32  1  0  0  0  0
  7 33  1  0  0  0  0
  7 34  1  0  0  0  0
  7 35  1  0  0  0  0
  8 36  1  0  0  0  0
  8 37  1  0  0  0  0
  8 38  1  0  0  0  0
 10 39  1  0  0  0  0
 10 40  1  0  0  0  0
 13 41  1  0  0  0  0
 14 42  1  0  0  0  0
 15 43  1  0  0  0  0
 22 44  1  0  0  0  0
 25 45  1  0  0  0  0
 25 46  1  0  0  0  0
 25 47  1  0  0  0  0
M  END
> <r_user_dG.exp>
-9.93099

$$$$
