p38a_2q
  -OEChem-05162309453D
 Structure written by MMmdl.
 59 63  0     0  0  0  0  0  0999 V2000
   38.2632   36.7144   17.0134 C   0  0  0  0  0  0  0  0  0  0  0  0
   34.5448   34.9770   21.1828 C   0  0  0  0  0  0  0  0  0  0  0  0
   37.5969   36.1886   18.1373 C   0  0  0  0  0  0  0  0  0  0  0  0
   34.0445   38.9756   23.7378 C   0  0  0  0  0  0  0  0  0  0  0  0
   34.8025   37.8108   21.4407 C   0  0  0  0  0  0  0  0  0  0  0  0
   35.2536   37.1252   20.2344 C   0  0  0  0  0  0  0  0  0  0  0  0
   37.6232   36.7427   15.7594 C   0  0  0  0  0  0  0  0  0  0  0  0
   36.3272   36.2163   15.6228 C   0  0  0  0  0  0  0  0  0  0  0  0
   35.6719   35.6684   16.7395 C   0  0  0  0  0  0  0  0  0  0  0  0
   34.3067   37.0366   22.5109 C   0  0  0  0  0  0  0  0  0  0  0  0
   34.8522   39.2088   21.6169 C   0  0  0  0  0  0  0  0  0  0  0  0
   35.1646   35.7815   20.1251 C   0  0  0  0  0  0  0  0  0  0  0  0
   36.2931   35.6640   18.0028 C   0  0  0  0  0  0  0  0  0  0  0  0
   38.1961   36.1968   19.3280 F   0  0  0  0  0  0  0  0  0  0  0  0
   35.6498   35.0616   19.0536 O   0  0  0  0  0  0  0  0  0  0  0  0
   34.4789   39.7925   22.7772 N   0  0  0  0  0  0  0  0  0  0  0  0
   34.3290   33.7761   21.0235 O   0  0  0  0  0  0  0  0  0  0  0  0
   34.2121   35.6181   22.3415 N   0  0  0  0  0  0  0  0  0  0  0  0
   33.9306   37.6499   23.6560 N   0  0  0  0  0  0  0  0  0  0  0  0
   33.6717   39.5652   24.9268 N   0  0  0  0  0  0  0  0  0  0  0  0
   38.2365   37.2743   14.7019 F   0  0  0  0  0  0  0  0  0  0  0  0
   32.3864   39.3434   28.5029 C   0  0  0  0  0  0  0  0  0  0  0  0
   32.8826   39.9949   27.2021 C   0  0  0  0  0  0  0  0  0  0  0  0
   33.1625   38.9326   26.1269 C   0  0  0  0  0  0  0  0  0  0  0  0
   34.1671   37.8864   26.6357 C   0  0  0  0  0  0  0  0  0  0  0  0
   33.6709   37.2349   27.9364 C   0  0  0  0  0  0  0  0  0  0  0  0
   33.3911   38.2971   29.0117 O   0  0  0  0  0  0  0  0  0  0  0  0
   32.9681   35.0145   25.8880 C   0  0  0  0  0  0  0  0  0  0  0  0
   33.4304   35.8030   24.6521 C   0  0  0  0  0  0  0  0  0  0  0  0
   33.7352   34.8576   23.4790 C   0  0  0  0  0  0  0  0  0  0  0  0
   34.7786   33.8023   23.8798 C   0  0  0  0  0  0  0  0  0  0  0  0
   34.3163   33.0139   25.1157 C   0  0  0  0  0  0  0  0  0  0  0  0
   34.0211   33.9577   26.3095 S   0  0  0  0  0  0  0  0  0  0  0  0
   35.2753   34.6740   26.6406 O   0  0  0  0  0  0  0  0  0  0  0  0
   33.4335   33.1427   27.3984 O   0  0  0  0  0  0  0  0  0  0  0  0
   39.2681   37.0971   17.1136 H   0  0  0  0  0  0  0  0  0  0  0  0
   35.6644   37.6998   19.4174 H   0  0  0  0  0  0  0  0  0  0  0  0
   35.8354   36.2327   14.6614 H   0  0  0  0  0  0  0  0  0  0  0  0
   34.6837   35.2474   16.6272 H   0  0  0  0  0  0  0  0  0  0  0  0
   35.1976   39.8294   20.8033 H   0  0  0  0  0  0  0  0  0  0  0  0
   34.4880   40.0570   25.2296 H   0  0  0  0  0  0  0  0  0  0  0  0
   32.2584   40.1220   29.2693 H   0  0  0  0  0  0  0  0  0  0  0  0
   31.4203   38.8526   28.3139 H   0  0  0  0  0  0  0  0  0  0  0  0
   32.1138   40.6886   26.8310 H   0  0  0  0  0  0  0  0  0  0  0  0
   33.8091   40.5507   27.4086 H   0  0  0  0  0  0  0  0  0  0  0  0
   32.2176   38.4189   25.8962 H   0  0  0  0  0  0  0  0  0  0  0  0
   34.2952   37.1078   25.8693 H   0  0  0  0  0  0  0  0  0  0  0  0
   35.1332   38.3772   26.8248 H   0  0  0  0  0  0  0  0  0  0  0  0
   32.7443   36.6792   27.7298 H   0  0  0  0  0  0  0  0  0  0  0  0
   34.4396   36.5411   28.3074 H   0  0  0  0  0  0  0  0  0  0  0  0
   32.8103   35.7150   26.7213 H   0  0  0  0  0  0  0  0  0  0  0  0
   32.0222   34.5040   25.6540 H   0  0  0  0  0  0  0  0  0  0  0  0
   32.6357   36.5025   24.3535 H   0  0  0  0  0  0  0  0  0  0  0  0
   34.3399   36.3677   24.9049 H   0  0  0  0  0  0  0  0  0  0  0  0
   32.8057   34.3365   23.2062 H   0  0  0  0  0  0  0  0  0  0  0  0
   34.9252   33.1047   23.0420 H   0  0  0  0  0  0  0  0  0  0  0  0
   35.7297   34.3053   24.1088 H   0  0  0  0  0  0  0  0  0  0  0  0
   33.4012   32.4579   24.8640 H   0  0  0  0  0  0  0  0  0  0  0  0
   35.1072   32.3064   25.4056 H   0  0  0  0  0  0  0  0  0  0  0  0
  1  3  2  0  0  0  0
  1  7  1  0  0  0  0
  2 12  1  0  0  0  0
  2 17  2  0  0  0  0
  2 18  1  0  0  0  0
  3 13  1  0  0  0  0
  3 14  1  0  0  0  0
  4 16  2  0  0  0  0
  4 19  1  0  0  0  0
  4 20  1  0  0  0  0
  5  6  1  0  0  0  0
  5 10  1  0  0  0  0
  5 11  2  0  0  0  0
  6 12  2  0  0  0  0
  7  8  2  0  0  0  0
  7 21  1  0  0  0  0
  8  9  1  0  0  0  0
  9 13  2  0  0  0  0
 10 18  1  0  0  0  0
 10 19  2  0  0  0  0
 11 16  1  0  0  0  0
 12 15  1  0  0  0  0
 13 15  1  0  0  0  0
 18 30  1  0  0  0  0
 20 24  1  0  0  0  0
 22 23  1  0  0  0  0
 22 27  1  0  0  0  0
 23 24  1  0  0  0  0
 24 25  1  0  0  0  0
 25 26  1  0  0  0  0
 26 27  1  0  0  0  0
 28 29  1  0  0  0  0
 28 33  1  0  0  0  0
 29 30  1  0  0  0  0
 30 31  1  0  0  0  0
 31 32  1  0  0  0  0
 32 33  1  0  0  0  0
 33 34  2  0  0  0  0
 33 35  2  0  0  0  0
  1 36  1  0  0  0  0
  6 37  1  0  0  0  0
  8 38  1  0  0  0  0
  9 39  1  0  0  0  0
 11 40  1  0  0  0  0
 20 41  1  0  0  0  0
 22 42  1  0  0  0  0
 22 43  1  0  0  0  0
 23 44  1  0  0  0  0
 23 45  1  0  0  0  0
 24 46  1  0  0  0  0
 25 47  1  0  0  0  0
 25 48  1  0  0  0  0
 26 49  1  0  0  0  0
 26 50  1  0  0  0  0
 28 51  1  0  0  0  0
 28 52  1  0  0  0  0
 29 53  1  0  0  0  0
 29 54  1  0  0  0  0
 30 55  1  0  0  0  0
 31 56  1  0  0  0  0
 31 57  1  0  0  0  0
 32 58  1  0  0  0  0
 32 59  1  0  0  0  0
M  END
> <r_user_dG.exp>
-12.264

$$$$
p38a_2q
  -OEChem-05162309453D
 Structure written by MMmdl.
 59 63  0     0  0  0  0  0  0999 V2000
   38.2632   36.7144   17.0134 C   0  0  0  0  0  0  0  0  0  0  0  0
   34.5448   34.9770   21.1828 C   0  0  0  0  0  0  0  0  0  0  0  0
   37.5969   36.1886   18.1373 C   0  0  0  0  0  0  0  0  0  0  0  0
   34.0445   38.9756   23.7378 C   0  0  0  0  0  0  0  0  0  0  0  0
   34.8025   37.8108   21.4407 C   0  0  0  0  0  0  0  0  0  0  0  0
   35.2536   37.1252   20.2344 C   0  0  0  0  0  0  0  0  0  0  0  0
   37.6232   36.7427   15.7594 C   0  0  0  0  0  0  0  0  0  0  0  0
   36.3272   36.2163   15.6228 C   0  0  0  0  0  0  0  0  0  0  0  0
   35.6719   35.6684   16.7395 C   0  0  0  0  0  0  0  0  0  0  0  0
   34.3067   37.0366   22.5109 C   0  0  0  0  0  0  0  0  0  0  0  0
   34.8522   39.2088   21.6169 C   0  0  0  0  0  0  0  0  0  0  0  0
   35.1646   35.7815   20.1251 C   0  0  0  0  0  0  0  0  0  0  0  0
   36.2931   35.6640   18.0028 C   0  0  0  0  0  0  0  0  0  0  0  0
   38.1961   36.1968   19.3280 F   0  0  0  0  0  0  0  0  0  0  0  0
   35.6498   35.0616   19.0536 O   0  0  0  0  0  0  0  0  0  0  0  0
   34.4789   39.7925   22.7772 N   0  0  0  0  0  0  0  0  0  0  0  0
   34.3290   33.7761   21.0235 O   0  0  0  0  0  0  0  0  0  0  0  0
   34.2121   35.6181   22.3415 N   0  0  0  0  0  0  0  0  0  0  0  0
   33.9306   37.6499   23.6560 N   0  0  0  0  0  0  0  0  0  0  0  0
   33.6717   39.5652   24.9268 N   0  0  0  0  0  0  0  0  0  0  0  0
   38.2365   37.2743   14.7019 F   0  0  0  0  0  0  0  0  0  0  0  0
   32.3864   39.3434   28.5029 C   0  0  0  0  0  0  0  0  0  0  0  0
   32.8826   39.9949   27.2021 C   0  0  0  0  0  0  0  0  0  0  0  0
   33.1625   38.9326   26.1269 C   0  0  0  0  0  0  0  0  0  0  0  0
   34.1671   37.8864   26.6357 C   0  0  0  0  0  0  0  0  0  0  0  0
   33.6709   37.2349   27.9364 C   0  0  0  0  0  0  0  0  0  0  0  0
   33.3911   38.2971   29.0117 O   0  0  0  0  0  0  0  0  0  0  0  0
   32.9681   35.0145   25.8880 C   0  0  0  0  0  0  0  0  0  0  0  0
   33.4304   35.8030   24.6521 C   0  0  0  0  0  0  0  0  0  0  0  0
   33.7352   34.8576   23.4790 C   0  0  0  0  0  0  0  0  0  0  0  0
   34.7786   33.8023   23.8798 C   0  0  0  0  0  0  0  0  0  0  0  0
   34.3163   33.0139   25.1157 C   0  0  0  0  0  0  0  0  0  0  0  0
   34.0211   33.9577   26.3095 S   0  0  0  0  0  0  0  0  0  0  0  0
   35.2753   34.6740   26.6406 O   0  0  0  0  0  0  0  0  0  0  0  0
   33.4335   33.1427   27.3984 O   0  0  0  0  0  0  0  0  0  0  0  0
   39.2681   37.0971   17.1136 H   0  0  0  0  0  0  0  0  0  0  0  0
   35.6644   37.6998   19.4174 H   0  0  0  0  0  0  0  0  0  0  0  0
   35.8354   36.2327   14.6614 H   0  0  0  0  0  0  0  0  0  0  0  0
   34.6837   35.2474   16.6272 H   0  0  0  0  0  0  0  0  0  0  0  0
   35.1976   39.8294   20.8033 H   0  0  0  0  0  0  0  0  0  0  0  0
   33.5744   37.1199   24.4255 H   0  0  0  0  0  0  0  0  0  0  0  0
   32.2584   40.1220   29.2693 H   0  0  0  0  0  0  0  0  0  0  0  0
   31.4203   38.8526   28.3139 H   0  0  0  0  0  0  0  0  0  0  0  0
   32.1138   40.6886   26.8310 H   0  0  0  0  0  0  0  0  0  0  0  0
   33.8091   40.5507   27.4086 H   0  0  0  0  0  0  0  0  0  0  0  0
   32.2176   38.4189   25.8962 H   0  0  0  0  0  0  0  0  0  0  0  0
   34.2952   37.1078   25.8693 H   0  0  0  0  0  0  0  0  0  0  0  0
   35.1332   38.3772   26.8248 H   0  0  0  0  0  0  0  0  0  0  0  0
   32.7443   36.6792   27.7298 H   0  0  0  0  0  0  0  0  0  0  0  0
   34.4396   36.5411   28.3074 H   0  0  0  0  0  0  0  0  0  0  0  0
   32.8103   35.7150   26.7213 H   0  0  0  0  0  0  0  0  0  0  0  0
   32.0222   34.5040   25.6540 H   0  0  0  0  0  0  0  0  0  0  0  0
   32.6357   36.5025   24.3535 H   0  0  0  0  0  0  0  0  0  0  0  0
   34.3399   36.3677   24.9049 H   0  0  0  0  0  0  0  0  0  0  0  0
   32.8057   34.3365   23.2062 H   0  0  0  0  0  0  0  0  0  0  0  0
   34.9252   33.1047   23.0420 H   0  0  0  0  0  0  0  0  0  0  0  0
   35.7297   34.3053   24.1088 H   0  0  0  0  0  0  0  0  0  0  0  0
   33.4012   32.4579   24.8640 H   0  0  0  0  0  0  0  0  0  0  0  0
   35.1072   32.3064   25.4056 H   0  0  0  0  0  0  0  0  0  0  0  0
  1  3  2  0  0  0  0
  1  7  1  0  0  0  0
  2 12  1  0  0  0  0
  2 17  2  0  0  0  0
  2 18  1  0  0  0  0
  3 13  1  0  0  0  0
  3 14  1  0  0  0  0
  4 16  1  0  0  0  0
  4 19  1  0  0  0  0
  4 20  2  0  0  0  0
  5  6  1  0  0  0  0
  5 10  2  0  0  0  0
  5 11  1  0  0  0  0
  6 12  2  0  0  0  0
  7  8  2  0  0  0  0
  7 21  1  0  0  0  0
  8  9  1  0  0  0  0
  9 13  2  0  0  0  0
 10 18  1  0  0  0  0
 10 19  1  0  0  0  0
 11 16  2  0  0  0  0
 12 15  1  0  0  0  0
 13 15  1  0  0  0  0
 18 30  1  0  0  0  0
 20 24  1  0  0  0  0
 22 23  1  0  0  0  0
 22 27  1  0  0  0  0
 23 24  1  0  0  0  0
 24 25  1  0  0  0  0
 25 26  1  0  0  0  0
 26 27  1  0  0  0  0
 28 29  1  0  0  0  0
 28 33  1  0  0  0  0
 29 30  1  0  0  0  0
 30 31  1  0  0  0  0
 31 32  1  0  0  0  0
 32 33  1  0  0  0  0
 33 34  2  0  0  0  0
 33 35  2  0  0  0  0
  1 36  1  0  0  0  0
  6 37  1  0  0  0  0
  8 38  1  0  0  0  0
  9 39  1  0  0  0  0
 11 40  1  0  0  0  0
 19 41  1  0  0  0  0
 22 42  1  0  0  0  0
 22 43  1  0  0  0  0
 23 44  1  0  0  0  0
 23 45  1  0  0  0  0
 24 46  1  0  0  0  0
 25 47  1  0  0  0  0
 25 48  1  0  0  0  0
 26 49  1  0  0  0  0
 26 50  1  0  0  0  0
 28 51  1  0  0  0  0
 28 52  1  0  0  0  0
 29 53  1  0  0  0  0
 29 54  1  0  0  0  0
 30 55  1  0  0  0  0
 31 56  1  0  0  0  0
 31 57  1  0  0  0  0
 32 58  1  0  0  0  0
 32 59  1  0  0  0  0
M  END
> <r_user_dG.exp>
-12.264

$$$$
p38a_2q
  -OEChem-05162309453D
 Structure written by MMmdl.
 59 63  0     0  0  0  0  0  0999 V2000
   38.2632   36.7144   17.0134 C   0  0  0  0  0  0  0  0  0  0  0  0
   34.5448   34.9770   21.1828 C   0  0  0  0  0  0  0  0  0  0  0  0
   37.5969   36.1886   18.1373 C   0  0  0  0  0  0  0  0  0  0  0  0
   34.0445   38.9756   23.7378 C   0  0  0  0  0  0  0  0  0  0  0  0
   34.8025   37.8108   21.4407 C   0  0  0  0  0  0  0  0  0  0  0  0
   35.2536   37.1252   20.2344 C   0  0  0  0  0  0  0  0  0  0  0  0
   37.6232   36.7427   15.7594 C   0  0  0  0  0  0  0  0  0  0  0  0
   36.3272   36.2163   15.6228 C   0  0  0  0  0  0  0  0  0  0  0  0
   35.6719   35.6684   16.7395 C   0  0  0  0  0  0  0  0  0  0  0  0
   34.3067   37.0366   22.5109 C   0  0  0  0  0  0  0  0  0  0  0  0
   34.8522   39.2088   21.6169 C   0  0  0  0  0  0  0  0  0  0  0  0
   35.1646   35.7815   20.1251 C   0  0  0  0  0  0  0  0  0  0  0  0
   36.2931   35.6640   18.0028 C   0  0  0  0  0  0  0  0  0  0  0  0
   38.1961   36.1968   19.3280 F   0  0  0  0  0  0  0  0  0  0  0  0
   35.6498   35.0616   19.0536 O   0  0  0  0  0  0  0  0  0  0  0  0
   34.4789   39.7925   22.7772 N   0  0  0  0  0  0  0  0  0  0  0  0
   34.3290   33.7761   21.0235 O   0  0  0  0  0  0  0  0  0  0  0  0
   34.2121   35.6181   22.3415 N   0  0  0  0  0  0  0  0  0  0  0  0
   33.9306   37.6499   23.6560 N   0  0  0  0  0  0  0  0  0  0  0  0
   33.6717   39.5652   24.9268 N   0  0  0  0  0  0  0  0  0  0  0  0
   38.2365   37.2743   14.7019 F   0  0  0  0  0  0  0  0  0  0  0  0
   32.3864   39.3434   28.5029 C   0  0  0  0  0  0  0  0  0  0  0  0
   32.8826   39.9949   27.2021 C   0  0  0  0  0  0  0  0  0  0  0  0
   33.1625   38.9326   26.1269 C   0  0  0  0  0  0  0  0  0  0  0  0
   34.1671   37.8864   26.6357 C   0  0  0  0  0  0  0  0  0  0  0  0
   33.6709   37.2349   27.9364 C   0  0  0  0  0  0  0  0  0  0  0  0
   33.3911   38.2971   29.0117 O   0  0  0  0  0  0  0  0  0  0  0  0
   32.9681   35.0145   25.8880 C   0  0  0  0  0  0  0  0  0  0  0  0
   33.4304   35.8030   24.6521 C   0  0  0  0  0  0  0  0  0  0  0  0
   33.7352   34.8576   23.4790 C   0  0  0  0  0  0  0  0  0  0  0  0
   34.7786   33.8023   23.8798 C   0  0  0  0  0  0  0  0  0  0  0  0
   34.3163   33.0139   25.1157 C   0  0  0  0  0  0  0  0  0  0  0  0
   34.0211   33.9577   26.3095 S   0  0  0  0  0  0  0  0  0  0  0  0
   35.2753   34.6740   26.6406 O   0  0  0  0  0  0  0  0  0  0  0  0
   33.4335   33.1427   27.3984 O   0  0  0  0  0  0  0  0  0  0  0  0
   39.2681   37.0971   17.1136 H   0  0  0  0  0  0  0  0  0  0  0  0
   35.6644   37.6998   19.4174 H   0  0  0  0  0  0  0  0  0  0  0  0
   35.8354   36.2327   14.6614 H   0  0  0  0  0  0  0  0  0  0  0  0
   34.6837   35.2474   16.6272 H   0  0  0  0  0  0  0  0  0  0  0  0
   35.1976   39.8294   20.8033 H   0  0  0  0  0  0  0  0  0  0  0  0
   34.5258   40.7827   22.9084 H   0  0  0  0  0  0  0  0  0  0  0  0
   32.2584   40.1220   29.2693 H   0  0  0  0  0  0  0  0  0  0  0  0
   31.4203   38.8526   28.3139 H   0  0  0  0  0  0  0  0  0  0  0  0
   32.1138   40.6886   26.8310 H   0  0  0  0  0  0  0  0  0  0  0  0
   33.8091   40.5507   27.4086 H   0  0  0  0  0  0  0  0  0  0  0  0
   32.2176   38.4189   25.8962 H   0  0  0  0  0  0  0  0  0  0  0  0
   34.2952   37.1078   25.8693 H   0  0  0  0  0  0  0  0  0  0  0  0
   35.1332   38.3772   26.8248 H   0  0  0  0  0  0  0  0  0  0  0  0
   32.7443   36.6792   27.7298 H   0  0  0  0  0  0  0  0  0  0  0  0
   34.4396   36.5411   28.3074 H   0  0  0  0  0  0  0  0  0  0  0  0
   32.8103   35.7150   26.7213 H   0  0  0  0  0  0  0  0  0  0  0  0
   32.0222   34.5040   25.6540 H   0  0  0  0  0  0  0  0  0  0  0  0
   32.6357   36.5025   24.3535 H   0  0  0  0  0  0  0  0  0  0  0  0
   34.3399   36.3677   24.9049 H   0  0  0  0  0  0  0  0  0  0  0  0
   32.8057   34.3365   23.2062 H   0  0  0  0  0  0  0  0  0  0  0  0
   34.9252   33.1047   23.0420 H   0  0  0  0  0  0  0  0  0  0  0  0
   35.7297   34.3053   24.1088 H   0  0  0  0  0  0  0  0  0  0  0  0
   33.4012   32.4579   24.8640 H   0  0  0  0  0  0  0  0  0  0  0  0
   35.1072   32.3064   25.4056 H   0  0  0  0  0  0  0  0  0  0  0  0
  1  3  2  0  0  0  0
  1  7  1  0  0  0  0
  2 12  1  0  0  0  0
  2 17  2  0  0  0  0
  2 18  1  0  0  0  0
  3 13  1  0  0  0  0
  3 14  1  0  0  0  0
  4 16  1  0  0  0  0
  4 19  1  0  0  0  0
  4 20  2  0  0  0  0
  5  6  1  0  0  0  0
  5 10  1  0  0  0  0
  5 11  2  0  0  0  0
  6 12  2  0  0  0  0
  7  8  2  0  0  0  0
  7 21  1  0  0  0  0
  8  9  1  0  0  0  0
  9 13  2  0  0  0  0
 10 18  1  0  0  0  0
 10 19  2  0  0  0  0
 11 16  1  0  0  0  0
 12 15  1  0  0  0  0
 13 15  1  0  0  0  0
 18 30  1  0  0  0  0
 20 24  1  0  0  0  0
 22 23  1  0  0  0  0
 22 27  1  0  0  0  0
 23 24  1  0  0  0  0
 24 25  1  0  0  0  0
 25 26  1  0  0  0  0
 26 27  1  0  0  0  0
 28 29  1  0  0  0  0
 28 33  1  0  0  0  0
 29 30  1  0  0  0  0
 30 31  1  0  0  0  0
 31 32  1  0  0  0  0
 32 33  1  0  0  0  0
 33 34  2  0  0  0  0
 33 35  2  0  0  0  0
  1 36  1  0  0  0  0
  6 37  1  0  0  0  0
  8 38  1  0  0  0  0
  9 39  1  0  0  0  0
 11 40  1  0  0  0  0
 16 41  1  0  0  0  0
 22 42  1  0  0  0  0
 22 43  1  0  0  0  0
 23 44  1  0  0  0  0
 23 45  1  0  0  0  0
 24 46  1  0  0  0  0
 25 47  1  0  0  0  0
 25 48  1  0  0  0  0
 26 49  1  0  0  0  0
 26 50  1  0  0  0  0
 28 51  1  0  0  0  0
 28 52  1  0  0  0  0
 29 53  1  0  0  0  0
 29 54  1  0  0  0  0
 30 55  1  0  0  0  0
 31 56  1  0  0  0  0
 31 57  1  0  0  0  0
 32 58  1  0  0  0  0
 32 59  1  0  0  0  0
M  END
> <r_user_dG.exp>
-12.264

$$$$
p38a_2q
  -OEChem-05162309453D
 Structure written by MMmdl.
 59 63  0     0  0  0  0  0  0999 V2000
   38.2632   36.7144   17.0134 C   0  0  0  0  0  0  0  0  0  0  0  0
   34.5448   34.9770   21.1828 C   0  0  0  0  0  0  0  0  0  0  0  0
   37.5969   36.1886   18.1373 C   0  0  0  0  0  0  0  0  0  0  0  0
   34.0445   38.9756   23.7378 C   0  0  0  0  0  0  0  0  0  0  0  0
   34.8025   37.8108   21.4407 C   0  0  0  0  0  0  0  0  0  0  0  0
   35.2536   37.1252   20.2344 C   0  0  0  0  0  0  0  0  0  0  0  0
   37.6232   36.7427   15.7594 C   0  0  0  0  0  0  0  0  0  0  0  0
   36.3272   36.2163   15.6228 C   0  0  0  0  0  0  0  0  0  0  0  0
   35.6719   35.6684   16.7395 C   0  0  0  0  0  0  0  0  0  0  0  0
   34.3067   37.0366   22.5109 C   0  0  0  0  0  0  0  0  0  0  0  0
   34.8522   39.2088   21.6169 C   0  0  0  0  0  0  0  0  0  0  0  0
   35.1646   35.7815   20.1251 C   0  0  0  0  0  0  0  0  0  0  0  0
   36.2931   35.6640   18.0028 C   0  0  0  0  0  0  0  0  0  0  0  0
   38.1961   36.1968   19.3280 F   0  0  0  0  0  0  0  0  0  0  0  0
   35.6498   35.0616   19.0536 O   0  0  0  0  0  0  0  0  0  0  0  0
   34.4789   39.7925   22.7772 N   0  0  0  0  0  0  0  0  0  0  0  0
   34.3290   33.7761   21.0235 O   0  0  0  0  0  0  0  0  0  0  0  0
   34.2121   35.6181   22.3415 N   0  0  0  0  0  0  0  0  0  0  0  0
   33.9306   37.6499   23.6560 N   0  0  0  0  0  0  0  0  0  0  0  0
   33.6717   39.5652   24.9268 N   0  0  0  0  0  0  0  0  0  0  0  0
   38.2365   37.2743   14.7019 F   0  0  0  0  0  0  0  0  0  0  0  0
   32.3864   39.3434   28.5029 C   0  0  0  0  0  0  0  0  0  0  0  0
   32.8826   39.9949   27.2021 C   0  0  0  0  0  0  0  0  0  0  0  0
   33.1625   38.9326   26.1269 C   0  0  0  0  0  0  0  0  0  0  0  0
   34.1671   37.8864   26.6357 C   0  0  0  0  0  0  0  0  0  0  0  0
   33.6709   37.2349   27.9364 C   0  0  0  0  0  0  0  0  0  0  0  0
   33.3911   38.2971   29.0117 O   0  0  0  0  0  0  0  0  0  0  0  0
   32.9681   35.0145   25.8880 C   0  0  0  0  0  0  0  0  0  0  0  0
   33.4304   35.8030   24.6521 C   0  0  0  0  0  0  0  0  0  0  0  0
   33.7352   34.8576   23.4790 C   0  0  0  0  0  0  0  0  0  0  0  0
   34.7786   33.8023   23.8798 C   0  0  0  0  0  0  0  0  0  0  0  0
   34.3163   33.0139   25.1157 C   0  0  0  0  0  0  0  0  0  0  0  0
   34.0211   33.9577   26.3095 S   0  0  0  0  0  0  0  0  0  0  0  0
   35.2753   34.6740   26.6406 O   0  0  0  0  0  0  0  0  0  0  0  0
   33.4335   33.1427   27.3984 O   0  0  0  0  0  0  0  0  0  0  0  0
   39.2681   37.0971   17.1136 H   0  0  0  0  0  0  0  0  0  0  0  0
   35.6644   37.6998   19.4174 H   0  0  0  0  0  0  0  0  0  0  0  0
   35.8354   36.2327   14.6614 H   0  0  0  0  0  0  0  0  0  0  0  0
   34.6837   35.2474   16.6272 H   0  0  0  0  0  0  0  0  0  0  0  0
   35.1976   39.8294   20.8033 H   0  0  0  0  0  0  0  0  0  0  0  0
   33.9261   33.4197   21.8065 H   0  0  0  0  0  0  0  0  0  0  0  0
   32.2584   40.1220   29.2693 H   0  0  0  0  0  0  0  0  0  0  0  0
   31.4203   38.8526   28.3139 H   0  0  0  0  0  0  0  0  0  0  0  0
   32.1138   40.6886   26.8310 H   0  0  0  0  0  0  0  0  0  0  0  0
   33.8091   40.5507   27.4086 H   0  0  0  0  0  0  0  0  0  0  0  0
   32.2176   38.4189   25.8962 H   0  0  0  0  0  0  0  0  0  0  0  0
   34.2952   37.1078   25.8693 H   0  0  0  0  0  0  0  0  0  0  0  0
   35.1332   38.3772   26.8248 H   0  0  0  0  0  0  0  0  0  0  0  0
   32.7443   36.6792   27.7298 H   0  0  0  0  0  0  0  0  0  0  0  0
   34.4396   36.5411   28.3074 H   0  0  0  0  0  0  0  0  0  0  0  0
   32.8103   35.7150   26.7213 H   0  0  0  0  0  0  0  0  0  0  0  0
   32.0222   34.5040   25.6540 H   0  0  0  0  0  0  0  0  0  0  0  0
   32.6357   36.5025   24.3535 H   0  0  0  0  0  0  0  0  0  0  0  0
   34.3399   36.3677   24.9049 H   0  0  0  0  0  0  0  0  0  0  0  0
   32.8057   34.3365   23.2062 H   0  0  0  0  0  0  0  0  0  0  0  0
   34.9252   33.1047   23.0420 H   0  0  0  0  0  0  0  0  0  0  0  0
   35.7297   34.3053   24.1088 H   0  0  0  0  0  0  0  0  0  0  0  0
   33.4012   32.4579   24.8640 H   0  0  0  0  0  0  0  0  0  0  0  0
   35.1072   32.3064   25.4056 H   0  0  0  0  0  0  0  0  0  0  0  0
  1  3  2  0  0  0  0
  1  7  1  0  0  0  0
  2 12  2  0  0  0  0
  2 17  1  0  0  0  0
  2 18  1  0  0  0  0
  3 13  1  0  0  0  0
  3 14  1  0  0  0  0
  4 16  1  0  0  0  0
  4 19  1  0  0  0  0
  4 20  2  0  0  0  0
  5  6  2  0  0  0  0
  5 10  1  0  0  0  0
  5 11  1  0  0  0  0
  6 12  1  0  0  0  0
  7  8  2  0  0  0  0
  7 21  1  0  0  0  0
  8  9  1  0  0  0  0
  9 13  2  0  0  0  0
 10 18  1  0  0  0  0
 10 19  2  0  0  0  0
 11 16  2  0  0  0  0
 12 15  1  0  0  0  0
 13 15  1  0  0  0  0
 18 30  1  0  0  0  0
 20 24  1  0  0  0  0
 22 23  1  0  0  0  0
 22 27  1  0  0  0  0
 23 24  1  0  0  0  0
 24 25  1  0  0  0  0
 25 26  1  0  0  0  0
 26 27  1  0  0  0  0
 28 29  1  0  0  0  0
 28 33  1  0  0  0  0
 29 30  1  0  0  0  0
 30 31  1  0  0  0  0
 31 32  1  0  0  0  0
 32 33  1  0  0  0  0
 33 34  2  0  0  0  0
 33 35  2  0  0  0  0
  1 36  1  0  0  0  0
  6 37  1  0  0  0  0
  8 38  1  0  0  0  0
  9 39  1  0  0  0  0
 11 40  1  0  0  0  0
 17 41  1  0  0  0  0
 22 42  1  0  0  0  0
 22 43  1  0  0  0  0
 23 44  1  0  0  0  0
 23 45  1  0  0  0  0
 24 46  1  0  0  0  0
 25 47  1  0  0  0  0
 25 48  1  0  0  0  0
 26 49  1  0  0  0  0
 26 50  1  0  0  0  0
 28 51  1  0  0  0  0
 28 52  1  0  0  0  0
 29 53  1  0  0  0  0
 29 54  1  0  0  0  0
 30 55  1  0  0  0  0
 31 56  1  0  0  0  0
 31 57  1  0  0  0  0
 32 58  1  0  0  0  0
 32 59  1  0  0  0  0
M  END
> <r_user_dG.exp>
-12.264

$$$$
p38a_2q
  -OEChem-05162309453D
 Structure written by MMmdl.
 59 63  0     1  0  0  0  0  0999 V2000
   38.2632   36.7144   17.0134 C   0  0  0  0  0  0  0  0  0  0  0  0
   34.5448   34.9770   21.1828 C   0  0  0  0  0  0  0  0  0  0  0  0
   37.5969   36.1886   18.1373 C   0  0  0  0  0  0  0  0  0  0  0  0
   34.0445   38.9756   23.7378 C   0  0  0  0  0  0  0  0  0  0  0  0
   34.8025   37.8108   21.4407 C   0  0  3  0  0  0  0  0  0  0  0  0
   35.2536   37.1252   20.2344 C   0  0  0  0  0  0  0  0  0  0  0  0
   37.6232   36.7427   15.7594 C   0  0  0  0  0  0  0  0  0  0  0  0
   36.3272   36.2163   15.6228 C   0  0  0  0  0  0  0  0  0  0  0  0
   35.6719   35.6684   16.7395 C   0  0  0  0  0  0  0  0  0  0  0  0
   34.3067   37.0366   22.5109 C   0  0  0  0  0  0  0  0  0  0  0  0
   34.8522   39.2088   21.6169 C   0  0  0  0  0  0  0  0  0  0  0  0
   35.1646   35.7815   20.1251 C   0  0  0  0  0  0  0  0  0  0  0  0
   36.2931   35.6640   18.0028 C   0  0  0  0  0  0  0  0  0  0  0  0
   38.1961   36.1968   19.3280 F   0  0  0  0  0  0  0  0  0  0  0  0
   35.6498   35.0616   19.0536 O   0  0  0  0  0  0  0  0  0  0  0  0
   34.4789   39.7925   22.7772 N   0  0  0  0  0  0  0  0  0  0  0  0
   34.3290   33.7761   21.0235 O   0  0  0  0  0  0  0  0  0  0  0  0
   34.2121   35.6181   22.3415 N   0  0  0  0  0  0  0  0  0  0  0  0
   33.9306   37.6499   23.6560 N   0  0  0  0  0  0  0  0  0  0  0  0
   33.6717   39.5652   24.9268 N   0  0  0  0  0  0  0  0  0  0  0  0
   38.2365   37.2743   14.7019 F   0  0  0  0  0  0  0  0  0  0  0  0
   32.3864   39.3434   28.5029 C   0  0  0  0  0  0  0  0  0  0  0  0
   32.8826   39.9949   27.2021 C   0  0  0  0  0  0  0  0  0  0  0  0
   33.1625   38.9326   26.1269 C   0  0  0  0  0  0  0  0  0  0  0  0
   34.1671   37.8864   26.6357 C   0  0  0  0  0  0  0  0  0  0  0  0
   33.6709   37.2349   27.9364 C   0  0  0  0  0  0  0  0  0  0  0  0
   33.3911   38.2971   29.0117 O   0  0  0  0  0  0  0  0  0  0  0  0
   32.9681   35.0145   25.8880 C   0  0  0  0  0  0  0  0  0  0  0  0
   33.4304   35.8030   24.6521 C   0  0  0  0  0  0  0  0  0  0  0  0
   33.7352   34.8576   23.4790 C   0  0  0  0  0  0  0  0  0  0  0  0
   34.7786   33.8023   23.8798 C   0  0  0  0  0  0  0  0  0  0  0  0
   34.3163   33.0139   25.1157 C   0  0  0  0  0  0  0  0  0  0  0  0
   34.0211   33.9577   26.3095 S   0  0  0  0  0  0  0  0  0  0  0  0
   35.2753   34.6740   26.6406 O   0  0  0  0  0  0  0  0  0  0  0  0
   33.4335   33.1427   27.3984 O   0  0  0  0  0  0  0  0  0  0  0  0
   39.2681   37.0971   17.1136 H   0  0  0  0  0  0  0  0  0  0  0  0
   33.7886   37.8932   21.0222 H   0  0  0  0  0  0  0  0  0  0  0  0
   35.6644   37.6998   19.4174 H   0  0  0  0  0  0  0  0  0  0  0  0
   35.8354   36.2327   14.6614 H   0  0  0  0  0  0  0  0  0  0  0  0
   34.6837   35.2474   16.6272 H   0  0  0  0  0  0  0  0  0  0  0  0
   35.1976   39.8294   20.8033 H   0  0  0  0  0  0  0  0  0  0  0  0
   32.2584   40.1220   29.2693 H   0  0  0  0  0  0  0  0  0  0  0  0
   31.4203   38.8526   28.3139 H   0  0  0  0  0  0  0  0  0  0  0  0
   32.1138   40.6886   26.8310 H   0  0  0  0  0  0  0  0  0  0  0  0
   33.8091   40.5507   27.4086 H   0  0  0  0  0  0  0  0  0  0  0  0
   32.2176   38.4189   25.8962 H   0  0  0  0  0  0  0  0  0  0  0  0
   34.2952   37.1078   25.8693 H   0  0  0  0  0  0  0  0  0  0  0  0
   35.1332   38.3772   26.8248 H   0  0  0  0  0  0  0  0  0  0  0  0
   32.7443   36.6792   27.7298 H   0  0  0  0  0  0  0  0  0  0  0  0
   34.4396   36.5411   28.3074 H   0  0  0  0  0  0  0  0  0  0  0  0
   32.8103   35.7150   26.7213 H   0  0  0  0  0  0  0  0  0  0  0  0
   32.0222   34.5040   25.6540 H   0  0  0  0  0  0  0  0  0  0  0  0
   32.6357   36.5025   24.3535 H   0  0  0  0  0  0  0  0  0  0  0  0
   34.3399   36.3677   24.9049 H   0  0  0  0  0  0  0  0  0  0  0  0
   32.8057   34.3365   23.2062 H   0  0  0  0  0  0  0  0  0  0  0  0
   34.9252   33.1047   23.0420 H   0  0  0  0  0  0  0  0  0  0  0  0
   35.7297   34.3053   24.1088 H   0  0  0  0  0  0  0  0  0  0  0  0
   33.4012   32.4579   24.8640 H   0  0  0  0  0  0  0  0  0  0  0  0
   35.1072   32.3064   25.4056 H   0  0  0  0  0  0  0  0  0  0  0  0
  1  3  2  0  0  0  0
  1  7  1  0  0  0  0
  2 12  1  0  0  0  0
  2 17  2  0  0  0  0
  2 18  1  0  0  0  0
  3 13  1  0  0  0  0
  3 14  1  0  0  0  0
  4 16  1  0  0  0  0
  4 19  1  0  0  0  0
  4 20  2  0  0  0  0
  5  6  1  0  0  0  0
  5 10  1  0  0  0  0
  5 11  1  0  0  0  0
  6 12  2  0  0  0  0
  7  8  2  0  0  0  0
  7 21  1  0  0  0  0
  8  9  1  0  0  0  0
  9 13  2  0  0  0  0
 10 18  1  0  0  0  0
 10 19  2  0  0  0  0
 11 16  2  0  0  0  0
 12 15  1  0  0  0  0
 13 15  1  0  0  0  0
 18 30  1  0  0  0  0
 20 24  1  0  0  0  0
 22 23  1  0  0  0  0
 22 27  1  0  0  0  0
 23 24  1  0  0  0  0
 24 25  1  0  0  0  0
 25 26  1  0  0  0  0
 26 27  1  0  0  0  0
 28 29  1  0  0  0  0
 28 33  1  0  0  0  0
 29 30  1  0  0  0  0
 30 31  1  0  0  0  0
 31 32  1  0  0  0  0
 32 33  1  0  0  0  0
 33 34  2  0  0  0  0
 33 35  2  0  0  0  0
  1 36  1  0  0  0  0
  5 37  1  0  0  0  0
  6 38  1  0  0  0  0
  8 39  1  0  0  0  0
  9 40  1  0  0  0  0
 11 41  1  0  0  0  0
 22 42  1  0  0  0  0
 22 43  1  0  0  0  0
 23 44  1  0  0  0  0
 23 45  1  0  0  0  0
 24 46  1  0  0  0  0
 25 47  1  0  0  0  0
 25 48  1  0  0  0  0
 26 49  1  0  0  0  0
 26 50  1  0  0  0  0
 28 51  1  0  0  0  0
 28 52  1  0  0  0  0
 29 53  1  0  0  0  0
 29 54  1  0  0  0  0
 30 55  1  0  0  0  0
 31 56  1  0  0  0  0
 31 57  1  0  0  0  0
 32 58  1  0  0  0  0
 32 59  1  0  0  0  0
M  END
> <r_user_dG.exp>
-12.264

$$$$
p38a_2q
  -OEChem-05162309453D
 Structure written by MMmdl.
 59 63  0     1  0  0  0  0  0999 V2000
   38.2632   36.7144   17.0134 C   0  0  0  0  0  0  0  0  0  0  0  0
   34.5448   34.9770   21.1828 C   0  0  0  0  0  0  0  0  0  0  0  0
   37.5969   36.1886   18.1373 C   0  0  0  0  0  0  0  0  0  0  0  0
   34.0445   38.9756   23.7378 C   0  0  0  0  0  0  0  0  0  0  0  0
   34.8025   37.8108   21.4407 C   0  0  0  0  0  0  0  0  0  0  0  0
   35.2536   37.1252   20.2344 C   0  0  0  0  0  0  0  0  0  0  0  0
   37.6232   36.7427   15.7594 C   0  0  0  0  0  0  0  0  0  0  0  0
   36.3272   36.2163   15.6228 C   0  0  0  0  0  0  0  0  0  0  0  0
   35.6719   35.6684   16.7395 C   0  0  0  0  0  0  0  0  0  0  0  0
   34.3067   37.0366   22.5109 C   0  0  0  0  0  0  0  0  0  0  0  0
   34.8522   39.2088   21.6169 C   0  0  0  0  0  0  0  0  0  0  0  0
   35.1646   35.7815   20.1251 C   0  0  3  0  0  0  0  0  0  0  0  0
   36.2931   35.6640   18.0028 C   0  0  0  0  0  0  0  0  0  0  0  0
   38.1961   36.1968   19.3280 F   0  0  0  0  0  0  0  0  0  0  0  0
   35.6498   35.0616   19.0536 O   0  0  0  0  0  0  0  0  0  0  0  0
   34.4789   39.7925   22.7772 N   0  0  0  0  0  0  0  0  0  0  0  0
   34.3290   33.7761   21.0235 O   0  0  0  0  0  0  0  0  0  0  0  0
   34.2121   35.6181   22.3415 N   0  0  0  0  0  0  0  0  0  0  0  0
   33.9306   37.6499   23.6560 N   0  0  0  0  0  0  0  0  0  0  0  0
   33.6717   39.5652   24.9268 N   0  0  0  0  0  0  0  0  0  0  0  0
   38.2365   37.2743   14.7019 F   0  0  0  0  0  0  0  0  0  0  0  0
   32.3864   39.3434   28.5029 C   0  0  0  0  0  0  0  0  0  0  0  0
   32.8826   39.9949   27.2021 C   0  0  0  0  0  0  0  0  0  0  0  0
   33.1625   38.9326   26.1269 C   0  0  0  0  0  0  0  0  0  0  0  0
   34.1671   37.8864   26.6357 C   0  0  0  0  0  0  0  0  0  0  0  0
   33.6709   37.2349   27.9364 C   0  0  0  0  0  0  0  0  0  0  0  0
   33.3911   38.2971   29.0117 O   0  0  0  0  0  0  0  0  0  0  0  0
   32.9681   35.0145   25.8880 C   0  0  0  0  0  0  0  0  0  0  0  0
   33.4304   35.8030   24.6521 C   0  0  0  0  0  0  0  0  0  0  0  0
   33.7352   34.8576   23.4790 C   0  0  0  0  0  0  0  0  0  0  0  0
   34.7786   33.8023   23.8798 C   0  0  0  0  0  0  0  0  0  0  0  0
   34.3163   33.0139   25.1157 C   0  0  0  0  0  0  0  0  0  0  0  0
   34.0211   33.9577   26.3095 S   0  0  0  0  0  0  0  0  0  0  0  0
   35.2753   34.6740   26.6406 O   0  0  0  0  0  0  0  0  0  0  0  0
   33.4335   33.1427   27.3984 O   0  0  0  0  0  0  0  0  0  0  0  0
   39.2681   37.0971   17.1136 H   0  0  0  0  0  0  0  0  0  0  0  0
   35.6644   37.6998   19.4174 H   0  0  0  0  0  0  0  0  0  0  0  0
   35.8354   36.2327   14.6614 H   0  0  0  0  0  0  0  0  0  0  0  0
   34.6837   35.2474   16.6272 H   0  0  0  0  0  0  0  0  0  0  0  0
   35.1976   39.8294   20.8033 H   0  0  0  0  0  0  0  0  0  0  0  0
   34.1907   35.8815   19.6236 H   0  0  0  0  0  0  0  0  0  0  0  0
   32.2584   40.1220   29.2693 H   0  0  0  0  0  0  0  0  0  0  0  0
   31.4203   38.8526   28.3139 H   0  0  0  0  0  0  0  0  0  0  0  0
   32.1138   40.6886   26.8310 H   0  0  0  0  0  0  0  0  0  0  0  0
   33.8091   40.5507   27.4086 H   0  0  0  0  0  0  0  0  0  0  0  0
   32.2176   38.4189   25.8962 H   0  0  0  0  0  0  0  0  0  0  0  0
   34.2952   37.1078   25.8693 H   0  0  0  0  0  0  0  0  0  0  0  0
   35.1332   38.3772   26.8248 H   0  0  0  0  0  0  0  0  0  0  0  0
   32.7443   36.6792   27.7298 H   0  0  0  0  0  0  0  0  0  0  0  0
   34.4396   36.5411   28.3074 H   0  0  0  0  0  0  0  0  0  0  0  0
   32.8103   35.7150   26.7213 H   0  0  0  0  0  0  0  0  0  0  0  0
   32.0222   34.5040   25.6540 H   0  0  0  0  0  0  0  0  0  0  0  0
   32.6357   36.5025   24.3535 H   0  0  0  0  0  0  0  0  0  0  0  0
   34.3399   36.3677   24.9049 H   0  0  0  0  0  0  0  0  0  0  0  0
   32.8057   34.3365   23.2062 H   0  0  0  0  0  0  0  0  0  0  0  0
   34.9252   33.1047   23.0420 H   0  0  0  0  0  0  0  0  0  0  0  0
   35.7297   34.3053   24.1088 H   0  0  0  0  0  0  0  0  0  0  0  0
   33.4012   32.4579   24.8640 H   0  0  0  0  0  0  0  0  0  0  0  0
   35.1072   32.3064   25.4056 H   0  0  0  0  0  0  0  0  0  0  0  0
  1  3  2  0  0  0  0
  1  7  1  0  0  0  0
  2 12  1  0  0  0  0
  2 17  2  0  0  0  0
  2 18  1  0  0  0  0
  3 13  1  0  0  0  0
  3 14  1  0  0  0  0
  4 16  1  0  0  0  0
  4 19  1  0  0  0  0
  4 20  2  0  0  0  0
  5  6  2  0  0  0  0
  5 10  1  0  0  0  0
  5 11  1  0  0  0  0
  6 12  1  0  0  0  0
  7  8  2  0  0  0  0
  7 21  1  0  0  0  0
  8  9  1  0  0  0  0
  9 13  2  0  0  0  0
 10 18  1  0  0  0  0
 10 19  2  0  0  0  0
 11 16  2  0  0  0  0
 12 15  1  0  0  0  0
 13 15  1  0  0  0  0
 18 30  1  0  0  0  0
 20 24  1  0  0  0  0
 22 23  1  0  0  0  0
 22 27  1  0  0  0  0
 23 24  1  0  0  0  0
 24 25  1  0  0  0  0
 25 26  1  0  0  0  0
 26 27  1  0  0  0  0
 28 29  1  0  0  0  0
 28 33  1  0  0  0  0
 29 30  1  0  0  0  0
 30 31  1  0  0  0  0
 31 32  1  0  0  0  0
 32 33  1  0  0  0  0
 33 34  2  0  0  0  0
 33 35  2  0  0  0  0
  1 36  1  0  0  0  0
  6 37  1  0  0  0  0
  8 38  1  0  0  0  0
  9 39  1  0  0  0  0
 11 40  1  0  0  0  0
 12 41  1  0  0  0  0
 22 42  1  0  0  0  0
 22 43  1  0  0  0  0
 23 44  1  0  0  0  0
 23 45  1  0  0  0  0
 24 46  1  0  0  0  0
 25 47  1  0  0  0  0
 25 48  1  0  0  0  0
 26 49  1  0  0  0  0
 26 50  1  0  0  0  0
 28 51  1  0  0  0  0
 28 52  1  0  0  0  0
 29 53  1  0  0  0  0
 29 54  1  0  0  0  0
 30 55  1  0  0  0  0
 31 56  1  0  0  0  0
 31 57  1  0  0  0  0
 32 58  1  0  0  0  0
 32 59  1  0  0  0  0
M  END
> <r_user_dG.exp>
-12.264

$$$$
