p38a_2o
  -OEChem-05192314073D
 Structure written by MMmdl.
 55 58  0     0  0  0  0  0  0999 V2000
   38.2632   36.7144   17.0134 C   0  0  0  0  0  0  0  0  0  0  0  0
   34.5448   34.9770   21.1828 C   0  0  0  0  0  0  0  0  0  0  0  0
   37.5969   36.1886   18.1373 C   0  0  0  0  0  0  0  0  0  0  0  0
   34.0445   38.9756   23.7378 C   0  0  0  0  0  0  0  0  0  0  0  0
   34.8025   37.8108   21.4407 C   0  0  0  0  0  0  0  0  0  0  0  0
   35.2536   37.1252   20.2344 C   0  0  0  0  0  0  0  0  0  0  0  0
   37.6232   36.7427   15.7594 C   0  0  0  0  0  0  0  0  0  0  0  0
   36.3272   36.2163   15.6228 C   0  0  0  0  0  0  0  0  0  0  0  0
   35.6719   35.6684   16.7395 C   0  0  0  0  0  0  0  0  0  0  0  0
   34.3067   37.0366   22.5109 C   0  0  0  0  0  0  0  0  0  0  0  0
   34.8522   39.2088   21.6169 C   0  0  0  0  0  0  0  0  0  0  0  0
   35.1646   35.7815   20.1251 C   0  0  0  0  0  0  0  0  0  0  0  0
   36.2931   35.6640   18.0028 C   0  0  0  0  0  0  0  0  0  0  0  0
   38.1961   36.1968   19.3280 F   0  0  0  0  0  0  0  0  0  0  0  0
   35.6498   35.0616   19.0536 O   0  0  0  0  0  0  0  0  0  0  0  0
   34.4789   39.7925   22.7772 N   0  0  0  0  0  0  0  0  0  0  0  0
   34.3290   33.7761   21.0235 O   0  0  0  0  0  0  0  0  0  0  0  0
   34.2121   35.6181   22.3415 N   0  0  0  0  0  0  0  0  0  0  0  0
   33.9306   37.6499   23.6560 N   0  0  0  0  0  0  0  0  0  0  0  0
   33.6717   39.5652   24.9268 N   0  0  0  0  0  0  0  0  0  0  0  0
   38.2365   37.2743   14.7019 F   0  0  0  0  0  0  0  0  0  0  0  0
   32.3864   39.3434   28.5029 C   0  0  0  0  0  0  0  0  0  0  0  0
   32.8826   39.9949   27.2021 C   0  0  0  0  0  0  0  0  0  0  0  0
   33.1625   38.9326   26.1269 C   0  0  0  0  0  0  0  0  0  0  0  0
   34.1671   37.8864   26.6357 C   0  0  0  0  0  0  0  0  0  0  0  0
   33.6709   37.2349   27.9364 C   0  0  0  0  0  0  0  0  0  0  0  0
   33.3911   38.2971   29.0117 O   0  0  0  0  0  0  0  0  0  0  0  0
   33.6777   34.8441   23.4439 C   0  0  0  0  0  0  0  0  0  0  0  0
   34.6979   33.7917   23.8682 C   0  0  0  0  0  0  0  0  0  0  0  0
   34.1447   32.9912   25.0097 S   0  0  0  0  0  0  0  0  0  0  0  0
   33.8700   33.9174   26.1332 O   0  0  0  0  0  0  0  0  0  0  0  0
   35.0852   31.8834   25.2984 O   0  0  0  0  0  0  0  0  0  0  0  0
   32.8423   32.3951   24.5642 C   0  0  0  0  0  0  0  0  0  0  0  0
   39.2681   37.0971   17.1136 H   0  0  0  0  0  0  0  0  0  0  0  0
   35.6644   37.6998   19.4174 H   0  0  0  0  0  0  0  0  0  0  0  0
   35.8354   36.2327   14.6614 H   0  0  0  0  0  0  0  0  0  0  0  0
   34.6837   35.2474   16.6272 H   0  0  0  0  0  0  0  0  0  0  0  0
   35.1976   39.8294   20.8033 H   0  0  0  0  0  0  0  0  0  0  0  0
   34.4880   40.0570   25.2296 H   0  0  0  0  0  0  0  0  0  0  0  0
   32.2584   40.1220   29.2693 H   0  0  0  0  0  0  0  0  0  0  0  0
   31.4203   38.8526   28.3139 H   0  0  0  0  0  0  0  0  0  0  0  0
   32.1138   40.6886   26.8310 H   0  0  0  0  0  0  0  0  0  0  0  0
   33.8091   40.5507   27.4086 H   0  0  0  0  0  0  0  0  0  0  0  0
   32.2176   38.4189   25.8962 H   0  0  0  0  0  0  0  0  0  0  0  0
   34.2952   37.1078   25.8693 H   0  0  0  0  0  0  0  0  0  0  0  0
   35.1332   38.3772   26.8248 H   0  0  0  0  0  0  0  0  0  0  0  0
   32.7443   36.6792   27.7298 H   0  0  0  0  0  0  0  0  0  0  0  0
   34.4396   36.5411   28.3074 H   0  0  0  0  0  0  0  0  0  0  0  0
   33.4655   35.5119   24.2919 H   0  0  0  0  0  0  0  0  0  0  0  0
   32.7488   34.3475   23.1269 H   0  0  0  0  0  0  0  0  0  0  0  0
   34.9098   33.1236   23.0204 H   0  0  0  0  0  0  0  0  0  0  0  0
   35.6270   34.2883   24.1848 H   0  0  0  0  0  0  0  0  0  0  0  0
   32.4114   31.8004   25.3832 H   0  0  0  0  0  0  0  0  0  0  0  0
   32.1452   33.2007   24.2901 H   0  0  0  0  0  0  0  0  0  0  0  0
   33.0150   31.7471   23.6922 H   0  0  0  0  0  0  0  0  0  0  0  0
  1  3  2  0  0  0  0
  1  7  1  0  0  0  0
  2 12  1  0  0  0  0
  2 17  2  0  0  0  0
  2 18  1  0  0  0  0
  3 13  1  0  0  0  0
  3 14  1  0  0  0  0
  4 16  2  0  0  0  0
  4 19  1  0  0  0  0
  4 20  1  0  0  0  0
  5  6  1  0  0  0  0
  5 10  1  0  0  0  0
  5 11  2  0  0  0  0
  6 12  2  0  0  0  0
  7  8  2  0  0  0  0
  7 21  1  0  0  0  0
  8  9  1  0  0  0  0
  9 13  2  0  0  0  0
 10 18  1  0  0  0  0
 10 19  2  0  0  0  0
 11 16  1  0  0  0  0
 12 15  1  0  0  0  0
 13 15  1  0  0  0  0
 18 28  1  0  0  0  0
 20 24  1  0  0  0  0
 22 23  1  0  0  0  0
 22 27  1  0  0  0  0
 23 24  1  0  0  0  0
 24 25  1  0  0  0  0
 25 26  1  0  0  0  0
 26 27  1  0  0  0  0
 28 29  1  0  0  0  0
 29 30  1  0  0  0  0
 30 31  2  0  0  0  0
 30 32  2  0  0  0  0
 30 33  1  0  0  0  0
  1 34  1  0  0  0  0
  6 35  1  0  0  0  0
  8 36  1  0  0  0  0
  9 37  1  0  0  0  0
 11 38  1  0  0  0  0
 20 39  1  0  0  0  0
 22 40  1  0  0  0  0
 22 41  1  0  0  0  0
 23 42  1  0  0  0  0
 23 43  1  0  0  0  0
 24 44  1  0  0  0  0
 25 45  1  0  0  0  0
 25 46  1  0  0  0  0
 26 47  1  0  0  0  0
 26 48  1  0  0  0  0
 28 49  1  0  0  0  0
 28 50  1  0  0  0  0
 29 51  1  0  0  0  0
 29 52  1  0  0  0  0
 33 53  1  0  0  0  0
 33 54  1  0  0  0  0
 33 55  1  0  0  0  0
M  END
> <r_user_dG.exp>
-10.491

$$$$
p38a_2o
  -OEChem-05192314073D
 Structure written by MMmdl.
 55 58  0     0  0  0  0  0  0999 V2000
   38.2632   36.7144   17.0134 C   0  0  0  0  0  0  0  0  0  0  0  0
   34.5448   34.9770   21.1828 C   0  0  0  0  0  0  0  0  0  0  0  0
   37.5969   36.1886   18.1373 C   0  0  0  0  0  0  0  0  0  0  0  0
   34.0445   38.9756   23.7378 C   0  0  0  0  0  0  0  0  0  0  0  0
   34.8025   37.8108   21.4407 C   0  0  0  0  0  0  0  0  0  0  0  0
   35.2536   37.1252   20.2344 C   0  0  0  0  0  0  0  0  0  0  0  0
   37.6232   36.7427   15.7594 C   0  0  0  0  0  0  0  0  0  0  0  0
   36.3272   36.2163   15.6228 C   0  0  0  0  0  0  0  0  0  0  0  0
   35.6719   35.6684   16.7395 C   0  0  0  0  0  0  0  0  0  0  0  0
   34.3067   37.0366   22.5109 C   0  0  0  0  0  0  0  0  0  0  0  0
   34.8522   39.2088   21.6169 C   0  0  0  0  0  0  0  0  0  0  0  0
   35.1646   35.7815   20.1251 C   0  0  0  0  0  0  0  0  0  0  0  0
   36.2931   35.6640   18.0028 C   0  0  0  0  0  0  0  0  0  0  0  0
   38.1961   36.1968   19.3280 F   0  0  0  0  0  0  0  0  0  0  0  0
   35.6498   35.0616   19.0536 O   0  0  0  0  0  0  0  0  0  0  0  0
   34.4789   39.7925   22.7772 N   0  0  0  0  0  0  0  0  0  0  0  0
   34.3290   33.7761   21.0235 O   0  0  0  0  0  0  0  0  0  0  0  0
   34.2121   35.6181   22.3415 N   0  0  0  0  0  0  0  0  0  0  0  0
   33.9306   37.6499   23.6560 N   0  0  0  0  0  0  0  0  0  0  0  0
   33.6717   39.5652   24.9268 N   0  0  0  0  0  0  0  0  0  0  0  0
   38.2365   37.2743   14.7019 F   0  0  0  0  0  0  0  0  0  0  0  0
   32.3864   39.3434   28.5029 C   0  0  0  0  0  0  0  0  0  0  0  0
   32.8826   39.9949   27.2021 C   0  0  0  0  0  0  0  0  0  0  0  0
   33.1625   38.9326   26.1269 C   0  0  0  0  0  0  0  0  0  0  0  0
   34.1671   37.8864   26.6357 C   0  0  0  0  0  0  0  0  0  0  0  0
   33.6709   37.2349   27.9364 C   0  0  0  0  0  0  0  0  0  0  0  0
   33.3911   38.2971   29.0117 O   0  0  0  0  0  0  0  0  0  0  0  0
   33.6777   34.8441   23.4439 C   0  0  0  0  0  0  0  0  0  0  0  0
   34.6979   33.7917   23.8682 C   0  0  0  0  0  0  0  0  0  0  0  0
   34.1447   32.9912   25.0097 S   0  0  0  0  0  0  0  0  0  0  0  0
   33.8700   33.9174   26.1332 O   0  0  0  0  0  0  0  0  0  0  0  0
   35.0852   31.8834   25.2984 O   0  0  0  0  0  0  0  0  0  0  0  0
   32.8423   32.3951   24.5642 C   0  0  0  0  0  0  0  0  0  0  0  0
   39.2681   37.0971   17.1136 H   0  0  0  0  0  0  0  0  0  0  0  0
   35.6644   37.6998   19.4174 H   0  0  0  0  0  0  0  0  0  0  0  0
   35.8354   36.2327   14.6614 H   0  0  0  0  0  0  0  0  0  0  0  0
   34.6837   35.2474   16.6272 H   0  0  0  0  0  0  0  0  0  0  0  0
   35.1976   39.8294   20.8033 H   0  0  0  0  0  0  0  0  0  0  0  0
   33.5744   37.1199   24.4255 H   0  0  0  0  0  0  0  0  0  0  0  0
   32.2584   40.1220   29.2693 H   0  0  0  0  0  0  0  0  0  0  0  0
   31.4203   38.8526   28.3139 H   0  0  0  0  0  0  0  0  0  0  0  0
   32.1138   40.6886   26.8310 H   0  0  0  0  0  0  0  0  0  0  0  0
   33.8091   40.5507   27.4086 H   0  0  0  0  0  0  0  0  0  0  0  0
   32.2176   38.4189   25.8962 H   0  0  0  0  0  0  0  0  0  0  0  0
   34.2952   37.1078   25.8693 H   0  0  0  0  0  0  0  0  0  0  0  0
   35.1332   38.3772   26.8248 H   0  0  0  0  0  0  0  0  0  0  0  0
   32.7443   36.6792   27.7298 H   0  0  0  0  0  0  0  0  0  0  0  0
   34.4396   36.5411   28.3074 H   0  0  0  0  0  0  0  0  0  0  0  0
   33.4655   35.5119   24.2919 H   0  0  0  0  0  0  0  0  0  0  0  0
   32.7488   34.3475   23.1269 H   0  0  0  0  0  0  0  0  0  0  0  0
   34.9098   33.1236   23.0204 H   0  0  0  0  0  0  0  0  0  0  0  0
   35.6270   34.2883   24.1848 H   0  0  0  0  0  0  0  0  0  0  0  0
   32.4114   31.8004   25.3832 H   0  0  0  0  0  0  0  0  0  0  0  0
   32.1452   33.2007   24.2901 H   0  0  0  0  0  0  0  0  0  0  0  0
   33.0150   31.7471   23.6922 H   0  0  0  0  0  0  0  0  0  0  0  0
  1  3  2  0  0  0  0
  1  7  1  0  0  0  0
  2 12  1  0  0  0  0
  2 17  2  0  0  0  0
  2 18  1  0  0  0  0
  3 13  1  0  0  0  0
  3 14  1  0  0  0  0
  4 16  1  0  0  0  0
  4 19  1  0  0  0  0
  4 20  2  0  0  0  0
  5  6  1  0  0  0  0
  5 10  2  0  0  0  0
  5 11  1  0  0  0  0
  6 12  2  0  0  0  0
  7  8  2  0  0  0  0
  7 21  1  0  0  0  0
  8  9  1  0  0  0  0
  9 13  2  0  0  0  0
 10 18  1  0  0  0  0
 10 19  1  0  0  0  0
 11 16  2  0  0  0  0
 12 15  1  0  0  0  0
 13 15  1  0  0  0  0
 18 28  1  0  0  0  0
 20 24  1  0  0  0  0
 22 23  1  0  0  0  0
 22 27  1  0  0  0  0
 23 24  1  0  0  0  0
 24 25  1  0  0  0  0
 25 26  1  0  0  0  0
 26 27  1  0  0  0  0
 28 29  1  0  0  0  0
 29 30  1  0  0  0  0
 30 31  2  0  0  0  0
 30 32  2  0  0  0  0
 30 33  1  0  0  0  0
  1 34  1  0  0  0  0
  6 35  1  0  0  0  0
  8 36  1  0  0  0  0
  9 37  1  0  0  0  0
 11 38  1  0  0  0  0
 19 39  1  0  0  0  0
 22 40  1  0  0  0  0
 22 41  1  0  0  0  0
 23 42  1  0  0  0  0
 23 43  1  0  0  0  0
 24 44  1  0  0  0  0
 25 45  1  0  0  0  0
 25 46  1  0  0  0  0
 26 47  1  0  0  0  0
 26 48  1  0  0  0  0
 28 49  1  0  0  0  0
 28 50  1  0  0  0  0
 29 51  1  0  0  0  0
 29 52  1  0  0  0  0
 33 53  1  0  0  0  0
 33 54  1  0  0  0  0
 33 55  1  0  0  0  0
M  END
> <r_user_dG.exp>
-10.491

$$$$
p38a_2o
  -OEChem-05192314073D
 Structure written by MMmdl.
 55 58  0     0  0  0  0  0  0999 V2000
   38.2632   36.7144   17.0134 C   0  0  0  0  0  0  0  0  0  0  0  0
   34.5448   34.9770   21.1828 C   0  0  0  0  0  0  0  0  0  0  0  0
   37.5969   36.1886   18.1373 C   0  0  0  0  0  0  0  0  0  0  0  0
   34.0445   38.9756   23.7378 C   0  0  0  0  0  0  0  0  0  0  0  0
   34.8025   37.8108   21.4407 C   0  0  0  0  0  0  0  0  0  0  0  0
   35.2536   37.1252   20.2344 C   0  0  0  0  0  0  0  0  0  0  0  0
   37.6232   36.7427   15.7594 C   0  0  0  0  0  0  0  0  0  0  0  0
   36.3272   36.2163   15.6228 C   0  0  0  0  0  0  0  0  0  0  0  0
   35.6719   35.6684   16.7395 C   0  0  0  0  0  0  0  0  0  0  0  0
   34.3067   37.0366   22.5109 C   0  0  0  0  0  0  0  0  0  0  0  0
   34.8522   39.2088   21.6169 C   0  0  0  0  0  0  0  0  0  0  0  0
   35.1646   35.7815   20.1251 C   0  0  0  0  0  0  0  0  0  0  0  0
   36.2931   35.6640   18.0028 C   0  0  0  0  0  0  0  0  0  0  0  0
   38.1961   36.1968   19.3280 F   0  0  0  0  0  0  0  0  0  0  0  0
   35.6498   35.0616   19.0536 O   0  0  0  0  0  0  0  0  0  0  0  0
   34.4789   39.7925   22.7772 N   0  0  0  0  0  0  0  0  0  0  0  0
   34.3290   33.7761   21.0235 O   0  0  0  0  0  0  0  0  0  0  0  0
   34.2121   35.6181   22.3415 N   0  0  0  0  0  0  0  0  0  0  0  0
   33.9306   37.6499   23.6560 N   0  0  0  0  0  0  0  0  0  0  0  0
   33.6717   39.5652   24.9268 N   0  0  0  0  0  0  0  0  0  0  0  0
   38.2365   37.2743   14.7019 F   0  0  0  0  0  0  0  0  0  0  0  0
   32.3864   39.3434   28.5029 C   0  0  0  0  0  0  0  0  0  0  0  0
   32.8826   39.9949   27.2021 C   0  0  0  0  0  0  0  0  0  0  0  0
   33.1625   38.9326   26.1269 C   0  0  0  0  0  0  0  0  0  0  0  0
   34.1671   37.8864   26.6357 C   0  0  0  0  0  0  0  0  0  0  0  0
   33.6709   37.2349   27.9364 C   0  0  0  0  0  0  0  0  0  0  0  0
   33.3911   38.2971   29.0117 O   0  0  0  0  0  0  0  0  0  0  0  0
   33.6777   34.8441   23.4439 C   0  0  0  0  0  0  0  0  0  0  0  0
   34.6979   33.7917   23.8682 C   0  0  0  0  0  0  0  0  0  0  0  0
   34.1447   32.9912   25.0097 S   0  0  0  0  0  0  0  0  0  0  0  0
   33.8700   33.9174   26.1332 O   0  0  0  0  0  0  0  0  0  0  0  0
   35.0852   31.8834   25.2984 O   0  0  0  0  0  0  0  0  0  0  0  0
   32.8423   32.3951   24.5642 C   0  0  0  0  0  0  0  0  0  0  0  0
   39.2681   37.0971   17.1136 H   0  0  0  0  0  0  0  0  0  0  0  0
   35.6644   37.6998   19.4174 H   0  0  0  0  0  0  0  0  0  0  0  0
   35.8354   36.2327   14.6614 H   0  0  0  0  0  0  0  0  0  0  0  0
   34.6837   35.2474   16.6272 H   0  0  0  0  0  0  0  0  0  0  0  0
   35.1976   39.8294   20.8033 H   0  0  0  0  0  0  0  0  0  0  0  0
   34.5258   40.7827   22.9084 H   0  0  0  0  0  0  0  0  0  0  0  0
   32.2584   40.1220   29.2693 H   0  0  0  0  0  0  0  0  0  0  0  0
   31.4203   38.8526   28.3139 H   0  0  0  0  0  0  0  0  0  0  0  0
   32.1138   40.6886   26.8310 H   0  0  0  0  0  0  0  0  0  0  0  0
   33.8091   40.5507   27.4086 H   0  0  0  0  0  0  0  0  0  0  0  0
   32.2176   38.4189   25.8962 H   0  0  0  0  0  0  0  0  0  0  0  0
   34.2952   37.1078   25.8693 H   0  0  0  0  0  0  0  0  0  0  0  0
   35.1332   38.3772   26.8248 H   0  0  0  0  0  0  0  0  0  0  0  0
   32.7443   36.6792   27.7298 H   0  0  0  0  0  0  0  0  0  0  0  0
   34.4396   36.5411   28.3074 H   0  0  0  0  0  0  0  0  0  0  0  0
   33.4655   35.5119   24.2919 H   0  0  0  0  0  0  0  0  0  0  0  0
   32.7488   34.3475   23.1269 H   0  0  0  0  0  0  0  0  0  0  0  0
   34.9098   33.1236   23.0204 H   0  0  0  0  0  0  0  0  0  0  0  0
   35.6270   34.2883   24.1848 H   0  0  0  0  0  0  0  0  0  0  0  0
   32.4114   31.8004   25.3832 H   0  0  0  0  0  0  0  0  0  0  0  0
   32.1452   33.2007   24.2901 H   0  0  0  0  0  0  0  0  0  0  0  0
   33.0150   31.7471   23.6922 H   0  0  0  0  0  0  0  0  0  0  0  0
  1  3  2  0  0  0  0
  1  7  1  0  0  0  0
  2 12  1  0  0  0  0
  2 17  2  0  0  0  0
  2 18  1  0  0  0  0
  3 13  1  0  0  0  0
  3 14  1  0  0  0  0
  4 16  1  0  0  0  0
  4 19  1  0  0  0  0
  4 20  2  0  0  0  0
  5  6  1  0  0  0  0
  5 10  1  0  0  0  0
  5 11  2  0  0  0  0
  6 12  2  0  0  0  0
  7  8  2  0  0  0  0
  7 21  1  0  0  0  0
  8  9  1  0  0  0  0
  9 13  2  0  0  0  0
 10 18  1  0  0  0  0
 10 19  2  0  0  0  0
 11 16  1  0  0  0  0
 12 15  1  0  0  0  0
 13 15  1  0  0  0  0
 18 28  1  0  0  0  0
 20 24  1  0  0  0  0
 22 23  1  0  0  0  0
 22 27  1  0  0  0  0
 23 24  1  0  0  0  0
 24 25  1  0  0  0  0
 25 26  1  0  0  0  0
 26 27  1  0  0  0  0
 28 29  1  0  0  0  0
 29 30  1  0  0  0  0
 30 31  2  0  0  0  0
 30 32  2  0  0  0  0
 30 33  1  0  0  0  0
  1 34  1  0  0  0  0
  6 35  1  0  0  0  0
  8 36  1  0  0  0  0
  9 37  1  0  0  0  0
 11 38  1  0  0  0  0
 16 39  1  0  0  0  0
 22 40  1  0  0  0  0
 22 41  1  0  0  0  0
 23 42  1  0  0  0  0
 23 43  1  0  0  0  0
 24 44  1  0  0  0  0
 25 45  1  0  0  0  0
 25 46  1  0  0  0  0
 26 47  1  0  0  0  0
 26 48  1  0  0  0  0
 28 49  1  0  0  0  0
 28 50  1  0  0  0  0
 29 51  1  0  0  0  0
 29 52  1  0  0  0  0
 33 53  1  0  0  0  0
 33 54  1  0  0  0  0
 33 55  1  0  0  0  0
M  END
> <r_user_dG.exp>
-10.491

$$$$
p38a_2o
  -OEChem-05192314073D
 Structure written by MMmdl.
 55 58  0     0  0  0  0  0  0999 V2000
   38.2632   36.7144   17.0134 C   0  0  0  0  0  0  0  0  0  0  0  0
   34.5448   34.9770   21.1828 C   0  0  0  0  0  0  0  0  0  0  0  0
   37.5969   36.1886   18.1373 C   0  0  0  0  0  0  0  0  0  0  0  0
   34.0445   38.9756   23.7378 C   0  0  0  0  0  0  0  0  0  0  0  0
   34.8025   37.8108   21.4407 C   0  0  0  0  0  0  0  0  0  0  0  0
   35.2536   37.1252   20.2344 C   0  0  0  0  0  0  0  0  0  0  0  0
   37.6232   36.7427   15.7594 C   0  0  0  0  0  0  0  0  0  0  0  0
   36.3272   36.2163   15.6228 C   0  0  0  0  0  0  0  0  0  0  0  0
   35.6719   35.6684   16.7395 C   0  0  0  0  0  0  0  0  0  0  0  0
   34.3067   37.0366   22.5109 C   0  0  0  0  0  0  0  0  0  0  0  0
   34.8522   39.2088   21.6169 C   0  0  0  0  0  0  0  0  0  0  0  0
   35.1646   35.7815   20.1251 C   0  0  0  0  0  0  0  0  0  0  0  0
   36.2931   35.6640   18.0028 C   0  0  0  0  0  0  0  0  0  0  0  0
   38.1961   36.1968   19.3280 F   0  0  0  0  0  0  0  0  0  0  0  0
   35.6498   35.0616   19.0536 O   0  0  0  0  0  0  0  0  0  0  0  0
   34.4789   39.7925   22.7772 N   0  0  0  0  0  0  0  0  0  0  0  0
   34.3290   33.7761   21.0235 O   0  0  0  0  0  0  0  0  0  0  0  0
   34.2121   35.6181   22.3415 N   0  0  0  0  0  0  0  0  0  0  0  0
   33.9306   37.6499   23.6560 N   0  0  0  0  0  0  0  0  0  0  0  0
   33.6717   39.5652   24.9268 N   0  0  0  0  0  0  0  0  0  0  0  0
   38.2365   37.2743   14.7019 F   0  0  0  0  0  0  0  0  0  0  0  0
   32.3864   39.3434   28.5029 C   0  0  0  0  0  0  0  0  0  0  0  0
   32.8826   39.9949   27.2021 C   0  0  0  0  0  0  0  0  0  0  0  0
   33.1625   38.9326   26.1269 C   0  0  0  0  0  0  0  0  0  0  0  0
   34.1671   37.8864   26.6357 C   0  0  0  0  0  0  0  0  0  0  0  0
   33.6709   37.2349   27.9364 C   0  0  0  0  0  0  0  0  0  0  0  0
   33.3911   38.2971   29.0117 O   0  0  0  0  0  0  0  0  0  0  0  0
   33.6777   34.8441   23.4439 C   0  0  0  0  0  0  0  0  0  0  0  0
   34.6979   33.7917   23.8682 C   0  0  0  0  0  0  0  0  0  0  0  0
   34.1447   32.9912   25.0097 S   0  0  0  0  0  0  0  0  0  0  0  0
   33.8700   33.9174   26.1332 O   0  0  0  0  0  0  0  0  0  0  0  0
   35.0852   31.8834   25.2984 O   0  0  0  0  0  0  0  0  0  0  0  0
   32.8423   32.3951   24.5642 C   0  0  0  0  0  0  0  0  0  0  0  0
   39.2681   37.0971   17.1136 H   0  0  0  0  0  0  0  0  0  0  0  0
   35.6644   37.6998   19.4174 H   0  0  0  0  0  0  0  0  0  0  0  0
   35.8354   36.2327   14.6614 H   0  0  0  0  0  0  0  0  0  0  0  0
   34.6837   35.2474   16.6272 H   0  0  0  0  0  0  0  0  0  0  0  0
   35.1976   39.8294   20.8033 H   0  0  0  0  0  0  0  0  0  0  0  0
   33.9261   33.4197   21.8065 H   0  0  0  0  0  0  0  0  0  0  0  0
   32.2584   40.1220   29.2693 H   0  0  0  0  0  0  0  0  0  0  0  0
   31.4203   38.8526   28.3139 H   0  0  0  0  0  0  0  0  0  0  0  0
   32.1138   40.6886   26.8310 H   0  0  0  0  0  0  0  0  0  0  0  0
   33.8091   40.5507   27.4086 H   0  0  0  0  0  0  0  0  0  0  0  0
   32.2176   38.4189   25.8962 H   0  0  0  0  0  0  0  0  0  0  0  0
   34.2952   37.1078   25.8693 H   0  0  0  0  0  0  0  0  0  0  0  0
   35.1332   38.3772   26.8248 H   0  0  0  0  0  0  0  0  0  0  0  0
   32.7443   36.6792   27.7298 H   0  0  0  0  0  0  0  0  0  0  0  0
   34.4396   36.5411   28.3074 H   0  0  0  0  0  0  0  0  0  0  0  0
   33.4655   35.5119   24.2919 H   0  0  0  0  0  0  0  0  0  0  0  0
   32.7488   34.3475   23.1269 H   0  0  0  0  0  0  0  0  0  0  0  0
   34.9098   33.1236   23.0204 H   0  0  0  0  0  0  0  0  0  0  0  0
   35.6270   34.2883   24.1848 H   0  0  0  0  0  0  0  0  0  0  0  0
   32.4114   31.8004   25.3832 H   0  0  0  0  0  0  0  0  0  0  0  0
   32.1452   33.2007   24.2901 H   0  0  0  0  0  0  0  0  0  0  0  0
   33.0150   31.7471   23.6922 H   0  0  0  0  0  0  0  0  0  0  0  0
  1  3  2  0  0  0  0
  1  7  1  0  0  0  0
  2 12  2  0  0  0  0
  2 17  1  0  0  0  0
  2 18  1  0  0  0  0
  3 13  1  0  0  0  0
  3 14  1  0  0  0  0
  4 16  1  0  0  0  0
  4 19  1  0  0  0  0
  4 20  2  0  0  0  0
  5  6  2  0  0  0  0
  5 10  1  0  0  0  0
  5 11  1  0  0  0  0
  6 12  1  0  0  0  0
  7  8  2  0  0  0  0
  7 21  1  0  0  0  0
  8  9  1  0  0  0  0
  9 13  2  0  0  0  0
 10 18  1  0  0  0  0
 10 19  2  0  0  0  0
 11 16  2  0  0  0  0
 12 15  1  0  0  0  0
 13 15  1  0  0  0  0
 18 28  1  0  0  0  0
 20 24  1  0  0  0  0
 22 23  1  0  0  0  0
 22 27  1  0  0  0  0
 23 24  1  0  0  0  0
 24 25  1  0  0  0  0
 25 26  1  0  0  0  0
 26 27  1  0  0  0  0
 28 29  1  0  0  0  0
 29 30  1  0  0  0  0
 30 31  2  0  0  0  0
 30 32  2  0  0  0  0
 30 33  1  0  0  0  0
  1 34  1  0  0  0  0
  6 35  1  0  0  0  0
  8 36  1  0  0  0  0
  9 37  1  0  0  0  0
 11 38  1  0  0  0  0
 17 39  1  0  0  0  0
 22 40  1  0  0  0  0
 22 41  1  0  0  0  0
 23 42  1  0  0  0  0
 23 43  1  0  0  0  0
 24 44  1  0  0  0  0
 25 45  1  0  0  0  0
 25 46  1  0  0  0  0
 26 47  1  0  0  0  0
 26 48  1  0  0  0  0
 28 49  1  0  0  0  0
 28 50  1  0  0  0  0
 29 51  1  0  0  0  0
 29 52  1  0  0  0  0
 33 53  1  0  0  0  0
 33 54  1  0  0  0  0
 33 55  1  0  0  0  0
M  END
> <r_user_dG.exp>
-10.491

$$$$
p38a_2o
  -OEChem-05192314073D
 Structure written by MMmdl.
 55 58  0     1  0  0  0  0  0999 V2000
   38.2632   36.7144   17.0134 C   0  0  0  0  0  0  0  0  0  0  0  0
   34.5448   34.9770   21.1828 C   0  0  0  0  0  0  0  0  0  0  0  0
   37.5969   36.1886   18.1373 C   0  0  0  0  0  0  0  0  0  0  0  0
   34.0445   38.9756   23.7378 C   0  0  0  0  0  0  0  0  0  0  0  0
   34.8025   37.8108   21.4407 C   0  0  3  0  0  0  0  0  0  0  0  0
   35.2536   37.1252   20.2344 C   0  0  0  0  0  0  0  0  0  0  0  0
   37.6232   36.7427   15.7594 C   0  0  0  0  0  0  0  0  0  0  0  0
   36.3272   36.2163   15.6228 C   0  0  0  0  0  0  0  0  0  0  0  0
   35.6719   35.6684   16.7395 C   0  0  0  0  0  0  0  0  0  0  0  0
   34.3067   37.0366   22.5109 C   0  0  0  0  0  0  0  0  0  0  0  0
   34.8522   39.2088   21.6169 C   0  0  0  0  0  0  0  0  0  0  0  0
   35.1646   35.7815   20.1251 C   0  0  0  0  0  0  0  0  0  0  0  0
   36.2931   35.6640   18.0028 C   0  0  0  0  0  0  0  0  0  0  0  0
   38.1961   36.1968   19.3280 F   0  0  0  0  0  0  0  0  0  0  0  0
   35.6498   35.0616   19.0536 O   0  0  0  0  0  0  0  0  0  0  0  0
   34.4789   39.7925   22.7772 N   0  0  0  0  0  0  0  0  0  0  0  0
   34.3290   33.7761   21.0235 O   0  0  0  0  0  0  0  0  0  0  0  0
   34.2121   35.6181   22.3415 N   0  0  0  0  0  0  0  0  0  0  0  0
   33.9306   37.6499   23.6560 N   0  0  0  0  0  0  0  0  0  0  0  0
   33.6717   39.5652   24.9268 N   0  0  0  0  0  0  0  0  0  0  0  0
   38.2365   37.2743   14.7019 F   0  0  0  0  0  0  0  0  0  0  0  0
   32.3864   39.3434   28.5029 C   0  0  0  0  0  0  0  0  0  0  0  0
   32.8826   39.9949   27.2021 C   0  0  0  0  0  0  0  0  0  0  0  0
   33.1625   38.9326   26.1269 C   0  0  0  0  0  0  0  0  0  0  0  0
   34.1671   37.8864   26.6357 C   0  0  0  0  0  0  0  0  0  0  0  0
   33.6709   37.2349   27.9364 C   0  0  0  0  0  0  0  0  0  0  0  0
   33.3911   38.2971   29.0117 O   0  0  0  0  0  0  0  0  0  0  0  0
   33.6777   34.8441   23.4439 C   0  0  0  0  0  0  0  0  0  0  0  0
   34.6979   33.7917   23.8682 C   0  0  0  0  0  0  0  0  0  0  0  0
   34.1447   32.9912   25.0097 S   0  0  0  0  0  0  0  0  0  0  0  0
   33.8700   33.9174   26.1332 O   0  0  0  0  0  0  0  0  0  0  0  0
   35.0852   31.8834   25.2984 O   0  0  0  0  0  0  0  0  0  0  0  0
   32.8423   32.3951   24.5642 C   0  0  0  0  0  0  0  0  0  0  0  0
   39.2681   37.0971   17.1136 H   0  0  0  0  0  0  0  0  0  0  0  0
   33.7886   37.8932   21.0222 H   0  0  0  0  0  0  0  0  0  0  0  0
   35.6644   37.6998   19.4174 H   0  0  0  0  0  0  0  0  0  0  0  0
   35.8354   36.2327   14.6614 H   0  0  0  0  0  0  0  0  0  0  0  0
   34.6837   35.2474   16.6272 H   0  0  0  0  0  0  0  0  0  0  0  0
   35.1976   39.8294   20.8033 H   0  0  0  0  0  0  0  0  0  0  0  0
   32.2584   40.1220   29.2693 H   0  0  0  0  0  0  0  0  0  0  0  0
   31.4203   38.8526   28.3139 H   0  0  0  0  0  0  0  0  0  0  0  0
   32.1138   40.6886   26.8310 H   0  0  0  0  0  0  0  0  0  0  0  0
   33.8091   40.5507   27.4086 H   0  0  0  0  0  0  0  0  0  0  0  0
   32.2176   38.4189   25.8962 H   0  0  0  0  0  0  0  0  0  0  0  0
   34.2952   37.1078   25.8693 H   0  0  0  0  0  0  0  0  0  0  0  0
   35.1332   38.3772   26.8248 H   0  0  0  0  0  0  0  0  0  0  0  0
   32.7443   36.6792   27.7298 H   0  0  0  0  0  0  0  0  0  0  0  0
   34.4396   36.5411   28.3074 H   0  0  0  0  0  0  0  0  0  0  0  0
   33.4655   35.5119   24.2919 H   0  0  0  0  0  0  0  0  0  0  0  0
   32.7488   34.3475   23.1269 H   0  0  0  0  0  0  0  0  0  0  0  0
   34.9098   33.1236   23.0204 H   0  0  0  0  0  0  0  0  0  0  0  0
   35.6270   34.2883   24.1848 H   0  0  0  0  0  0  0  0  0  0  0  0
   32.4114   31.8004   25.3832 H   0  0  0  0  0  0  0  0  0  0  0  0
   32.1452   33.2007   24.2901 H   0  0  0  0  0  0  0  0  0  0  0  0
   33.0150   31.7471   23.6922 H   0  0  0  0  0  0  0  0  0  0  0  0
  1  3  2  0  0  0  0
  1  7  1  0  0  0  0
  2 12  1  0  0  0  0
  2 17  2  0  0  0  0
  2 18  1  0  0  0  0
  3 13  1  0  0  0  0
  3 14  1  0  0  0  0
  4 16  1  0  0  0  0
  4 19  1  0  0  0  0
  4 20  2  0  0  0  0
  5  6  1  0  0  0  0
  5 10  1  0  0  0  0
  5 11  1  0  0  0  0
  6 12  2  0  0  0  0
  7  8  2  0  0  0  0
  7 21  1  0  0  0  0
  8  9  1  0  0  0  0
  9 13  2  0  0  0  0
 10 18  1  0  0  0  0
 10 19  2  0  0  0  0
 11 16  2  0  0  0  0
 12 15  1  0  0  0  0
 13 15  1  0  0  0  0
 18 28  1  0  0  0  0
 20 24  1  0  0  0  0
 22 23  1  0  0  0  0
 22 27  1  0  0  0  0
 23 24  1  0  0  0  0
 24 25  1  0  0  0  0
 25 26  1  0  0  0  0
 26 27  1  0  0  0  0
 28 29  1  0  0  0  0
 29 30  1  0  0  0  0
 30 31  2  0  0  0  0
 30 32  2  0  0  0  0
 30 33  1  0  0  0  0
  1 34  1  0  0  0  0
  5 35  1  0  0  0  0
  6 36  1  0  0  0  0
  8 37  1  0  0  0  0
  9 38  1  0  0  0  0
 11 39  1  0  0  0  0
 22 40  1  0  0  0  0
 22 41  1  0  0  0  0
 23 42  1  0  0  0  0
 23 43  1  0  0  0  0
 24 44  1  0  0  0  0
 25 45  1  0  0  0  0
 25 46  1  0  0  0  0
 26 47  1  0  0  0  0
 26 48  1  0  0  0  0
 28 49  1  0  0  0  0
 28 50  1  0  0  0  0
 29 51  1  0  0  0  0
 29 52  1  0  0  0  0
 33 53  1  0  0  0  0
 33 54  1  0  0  0  0
 33 55  1  0  0  0  0
M  END
> <r_user_dG.exp>
-10.491

$$$$
p38a_2o
  -OEChem-05192314073D
 Structure written by MMmdl.
 55 58  0     1  0  0  0  0  0999 V2000
   38.2632   36.7144   17.0134 C   0  0  0  0  0  0  0  0  0  0  0  0
   34.5448   34.9770   21.1828 C   0  0  0  0  0  0  0  0  0  0  0  0
   37.5969   36.1886   18.1373 C   0  0  0  0  0  0  0  0  0  0  0  0
   34.0445   38.9756   23.7378 C   0  0  0  0  0  0  0  0  0  0  0  0
   34.8025   37.8108   21.4407 C   0  0  0  0  0  0  0  0  0  0  0  0
   35.2536   37.1252   20.2344 C   0  0  0  0  0  0  0  0  0  0  0  0
   37.6232   36.7427   15.7594 C   0  0  0  0  0  0  0  0  0  0  0  0
   36.3272   36.2163   15.6228 C   0  0  0  0  0  0  0  0  0  0  0  0
   35.6719   35.6684   16.7395 C   0  0  0  0  0  0  0  0  0  0  0  0
   34.3067   37.0366   22.5109 C   0  0  0  0  0  0  0  0  0  0  0  0
   34.8522   39.2088   21.6169 C   0  0  0  0  0  0  0  0  0  0  0  0
   35.1646   35.7815   20.1251 C   0  0  3  0  0  0  0  0  0  0  0  0
   36.2931   35.6640   18.0028 C   0  0  0  0  0  0  0  0  0  0  0  0
   38.1961   36.1968   19.3280 F   0  0  0  0  0  0  0  0  0  0  0  0
   35.6498   35.0616   19.0536 O   0  0  0  0  0  0  0  0  0  0  0  0
   34.4789   39.7925   22.7772 N   0  0  0  0  0  0  0  0  0  0  0  0
   34.3290   33.7761   21.0235 O   0  0  0  0  0  0  0  0  0  0  0  0
   34.2121   35.6181   22.3415 N   0  0  0  0  0  0  0  0  0  0  0  0
   33.9306   37.6499   23.6560 N   0  0  0  0  0  0  0  0  0  0  0  0
   33.6717   39.5652   24.9268 N   0  0  0  0  0  0  0  0  0  0  0  0
   38.2365   37.2743   14.7019 F   0  0  0  0  0  0  0  0  0  0  0  0
   32.3864   39.3434   28.5029 C   0  0  0  0  0  0  0  0  0  0  0  0
   32.8826   39.9949   27.2021 C   0  0  0  0  0  0  0  0  0  0  0  0
   33.1625   38.9326   26.1269 C   0  0  0  0  0  0  0  0  0  0  0  0
   34.1671   37.8864   26.6357 C   0  0  0  0  0  0  0  0  0  0  0  0
   33.6709   37.2349   27.9364 C   0  0  0  0  0  0  0  0  0  0  0  0
   33.3911   38.2971   29.0117 O   0  0  0  0  0  0  0  0  0  0  0  0
   33.6777   34.8441   23.4439 C   0  0  0  0  0  0  0  0  0  0  0  0
   34.6979   33.7917   23.8682 C   0  0  0  0  0  0  0  0  0  0  0  0
   34.1447   32.9912   25.0097 S   0  0  0  0  0  0  0  0  0  0  0  0
   33.8700   33.9174   26.1332 O   0  0  0  0  0  0  0  0  0  0  0  0
   35.0852   31.8834   25.2984 O   0  0  0  0  0  0  0  0  0  0  0  0
   32.8423   32.3951   24.5642 C   0  0  0  0  0  0  0  0  0  0  0  0
   39.2681   37.0971   17.1136 H   0  0  0  0  0  0  0  0  0  0  0  0
   35.6644   37.6998   19.4174 H   0  0  0  0  0  0  0  0  0  0  0  0
   35.8354   36.2327   14.6614 H   0  0  0  0  0  0  0  0  0  0  0  0
   34.6837   35.2474   16.6272 H   0  0  0  0  0  0  0  0  0  0  0  0
   35.1976   39.8294   20.8033 H   0  0  0  0  0  0  0  0  0  0  0  0
   34.1907   35.8815   19.6236 H   0  0  0  0  0  0  0  0  0  0  0  0
   32.2584   40.1220   29.2693 H   0  0  0  0  0  0  0  0  0  0  0  0
   31.4203   38.8526   28.3139 H   0  0  0  0  0  0  0  0  0  0  0  0
   32.1138   40.6886   26.8310 H   0  0  0  0  0  0  0  0  0  0  0  0
   33.8091   40.5507   27.4086 H   0  0  0  0  0  0  0  0  0  0  0  0
   32.2176   38.4189   25.8962 H   0  0  0  0  0  0  0  0  0  0  0  0
   34.2952   37.1078   25.8693 H   0  0  0  0  0  0  0  0  0  0  0  0
   35.1332   38.3772   26.8248 H   0  0  0  0  0  0  0  0  0  0  0  0
   32.7443   36.6792   27.7298 H   0  0  0  0  0  0  0  0  0  0  0  0
   34.4396   36.5411   28.3074 H   0  0  0  0  0  0  0  0  0  0  0  0
   33.4655   35.5119   24.2919 H   0  0  0  0  0  0  0  0  0  0  0  0
   32.7488   34.3475   23.1269 H   0  0  0  0  0  0  0  0  0  0  0  0
   34.9098   33.1236   23.0204 H   0  0  0  0  0  0  0  0  0  0  0  0
   35.6270   34.2883   24.1848 H   0  0  0  0  0  0  0  0  0  0  0  0
   32.4114   31.8004   25.3832 H   0  0  0  0  0  0  0  0  0  0  0  0
   32.1452   33.2007   24.2901 H   0  0  0  0  0  0  0  0  0  0  0  0
   33.0150   31.7471   23.6922 H   0  0  0  0  0  0  0  0  0  0  0  0
  1  3  2  0  0  0  0
  1  7  1  0  0  0  0
  2 12  1  0  0  0  0
  2 17  2  0  0  0  0
  2 18  1  0  0  0  0
  3 13  1  0  0  0  0
  3 14  1  0  0  0  0
  4 16  1  0  0  0  0
  4 19  1  0  0  0  0
  4 20  2  0  0  0  0
  5  6  2  0  0  0  0
  5 10  1  0  0  0  0
  5 11  1  0  0  0  0
  6 12  1  0  0  0  0
  7  8  2  0  0  0  0
  7 21  1  0  0  0  0
  8  9  1  0  0  0  0
  9 13  2  0  0  0  0
 10 18  1  0  0  0  0
 10 19  2  0  0  0  0
 11 16  2  0  0  0  0
 12 15  1  0  0  0  0
 13 15  1  0  0  0  0
 18 28  1  0  0  0  0
 20 24  1  0  0  0  0
 22 23  1  0  0  0  0
 22 27  1  0  0  0  0
 23 24  1  0  0  0  0
 24 25  1  0  0  0  0
 25 26  1  0  0  0  0
 26 27  1  0  0  0  0
 28 29  1  0  0  0  0
 29 30  1  0  0  0  0
 30 31  2  0  0  0  0
 30 32  2  0  0  0  0
 30 33  1  0  0  0  0
  1 34  1  0  0  0  0
  6 35  1  0  0  0  0
  8 36  1  0  0  0  0
  9 37  1  0  0  0  0
 11 38  1  0  0  0  0
 12 39  1  0  0  0  0
 22 40  1  0  0  0  0
 22 41  1  0  0  0  0
 23 42  1  0  0  0  0
 23 43  1  0  0  0  0
 24 44  1  0  0  0  0
 25 45  1  0  0  0  0
 25 46  1  0  0  0  0
 26 47  1  0  0  0  0
 26 48  1  0  0  0  0
 28 49  1  0  0  0  0
 28 50  1  0  0  0  0
 29 51  1  0  0  0  0
 29 52  1  0  0  0  0
 33 53  1  0  0  0  0
 33 54  1  0  0  0  0
 33 55  1  0  0  0  0
M  END
> <r_user_dG.exp>
-10.491

$$$$
