1b
  -OEChem-05192314073D
 Structure written by MMmdl.
 51 53  0     1  0  0  0  0  0999 V2000
   18.2653  -13.2407   21.7065 N   0  0  0  0  0  0  0  0  0  0  0  0
   18.0666  -11.9445   21.0290 C   0  0  2  0  0  0  0  0  0  0  0  0
   17.3965  -13.7802   22.5963 C   0  0  0  0  0  0  0  0  0  0  0  0
   16.3982  -13.1682   22.9797 O   0  0  0  0  0  0  0  0  0  0  0  0
   16.6625  -11.7536   20.4056 C   0  0  0  0  0  0  0  0  0  0  0  0
   16.1638  -12.6466   19.7188 O   0  0  0  0  0  0  0  0  0  0  0  0
   19.1633  -11.8944   19.9556 C   0  0  0  0  0  0  0  0  0  0  0  0
   17.6504  -15.1803   23.1883 C   0  0  2  0  0  0  0  0  0  0  0  0
   16.0423  -10.5938   20.6504 N   0  0  0  0  0  0  0  0  0  0  0  0
   20.2631  -12.8149   20.4461 C   0  0  0  0  0  0  0  0  0  0  0  0
   16.4086  -15.9682   23.1113 N   0  0  0  0  0  0  0  0  0  0  0  0
   18.1359  -15.1116   24.6549 C   0  0  0  0  0  0  0  0  0  0  0  0
   14.7042  -10.2162   20.2151 C   0  0  0  0  0  0  0  0  0  0  0  0
   19.5455  -13.8412   21.3148 C   0  0  0  0  0  0  0  0  0  0  0  0
   19.5607  -14.6147   24.8273 C   0  0  0  0  0  0  0  0  0  0  0  0
   13.6411  -10.3567   21.2915 C   0  0  0  0  0  0  0  0  0  0  0  0
   19.8041  -13.3098   25.2934 C   0  0  0  0  0  0  0  0  0  0  0  0
   12.9051  -11.5528   21.4232 C   0  0  0  0  0  0  0  0  0  0  0  0
   21.1138  -12.8171   25.3982 C   0  0  0  0  0  0  0  0  0  0  0  0
   11.8942  -11.6572   22.4010 C   0  0  0  0  0  0  0  0  0  0  0  0
   22.2000  -13.6406   25.0541 C   0  0  0  0  0  0  0  0  0  0  0  0
   11.6200  -10.5698   23.2551 C   0  0  0  0  0  0  0  0  0  0  0  0
   21.9704  -14.9618   24.6258 C   0  0  0  0  0  0  0  0  0  0  0  0
   12.3724   -9.3839   23.1465 C   0  0  0  0  0  0  0  0  0  0  0  0
   20.6532  -15.4491   24.5107 C   0  0  0  0  0  0  0  0  0  0  0  0
   13.3735   -9.2784   22.1614 C   0  0  0  0  0  0  0  0  0  0  0  0
   12.1062   -8.0755   24.2428 Cl  0  0  0  0  0  0  0  0  0  0  0  0
   18.2415  -11.1288   21.7459 H   0  0  0  0  0  0  0  0  0  0  0  0
   18.7709  -12.2468   18.9903 H   0  0  0  0  0  0  0  0  0  0  0  0
   19.5438  -10.8683   19.8442 H   0  0  0  0  0  0  0  0  0  0  0  0
   18.4302  -15.6734   22.5893 H   0  0  0  0  0  0  0  0  0  0  0  0
   16.5482   -9.9178   21.1862 H   0  0  0  0  0  0  0  0  0  0  0  0
   20.7652  -13.3058   19.5994 H   0  0  0  0  0  0  0  0  0  0  0  0
   21.0032  -12.2554   21.0370 H   0  0  0  0  0  0  0  0  0  0  0  0
   16.5665  -16.8784   23.4941 H   0  0  0  0  0  0  0  0  0  0  0  0
   15.6892  -15.5081   23.6317 H   0  0  0  0  0  0  0  0  0  0  0  0
   17.4673  -14.4340   25.2061 H   0  0  0  0  0  0  0  0  0  0  0  0
   18.0705  -16.1217   25.0855 H   0  0  0  0  0  0  0  0  0  0  0  0
   14.7300   -9.1658   19.8895 H   0  0  0  0  0  0  0  0  0  0  0  0
   14.4233  -10.8565   19.3659 H   0  0  0  0  0  0  0  0  0  0  0  0
   20.1465  -14.0687   22.2076 H   0  0  0  0  0  0  0  0  0  0  0  0
   19.3719  -14.7656   20.7444 H   0  0  0  0  0  0  0  0  0  0  0  0
   18.9730  -12.6797   25.5739 H   0  0  0  0  0  0  0  0  0  0  0  0
   13.1161  -12.3899   20.7743 H   0  0  0  0  0  0  0  0  0  0  0  0
   21.2869  -11.8081   25.7422 H   0  0  0  0  0  0  0  0  0  0  0  0
   11.3288  -12.5725   22.4957 H   0  0  0  0  0  0  0  0  0  0  0  0
   23.2088  -13.2603   25.1182 H   0  0  0  0  0  0  0  0  0  0  0  0
   10.8340  -10.6458   23.9919 H   0  0  0  0  0  0  0  0  0  0  0  0
   22.8053  -15.6031   24.3850 H   0  0  0  0  0  0  0  0  0  0  0  0
   20.4799  -16.4624   24.1798 H   0  0  0  0  0  0  0  0  0  0  0  0
   13.9413   -8.3642   22.0710 H   0  0  0  0  0  0  0  0  0  0  0  0
  1  2  1  0  0  0  0
  1 14  1  0  0  0  0
  1  3  1  0  0  0  0
  2  5  1  0  0  0  0
  2  7  1  0  0  0  0
  3  8  1  0  0  0  0
  3  4  2  0  0  0  0
  5  6  2  0  0  0  0
  5  9  1  0  0  0  0
  7 10  1  0  0  0  0
  8 11  1  0  0  0  0
  8 12  1  0  0  0  0
  9 13  1  0  0  0  0
 10 14  1  0  0  0  0
 12 15  1  0  0  0  0
 13 16  1  0  0  0  0
 15 17  2  0  0  0  0
 15 25  1  0  0  0  0
 16 18  2  0  0  0  0
 16 26  1  0  0  0  0
 17 19  1  0  0  0  0
 18 20  1  0  0  0  0
 19 21  2  0  0  0  0
 20 22  2  0  0  0  0
 21 23  1  0  0  0  0
 22 24  1  0  0  0  0
 23 25  2  0  0  0  0
 24 26  2  0  0  0  0
 24 27  1  0  0  0  0
  2 28  1  0  0  0  0
  7 29  1  0  0  0  0
  7 30  1  0  0  0  0
  8 31  1  0  0  0  0
  9 32  1  0  0  0  0
 10 33  1  0  0  0  0
 10 34  1  0  0  0  0
 11 35  1  0  0  0  0
 11 36  1  0  0  0  0
 12 37  1  0  0  0  0
 12 38  1  0  0  0  0
 13 39  1  0  0  0  0
 13 40  1  0  0  0  0
 14 41  1  0  0  0  0
 14 42  1  0  0  0  0
 17 43  1  0  0  0  0
 18 44  1  0  0  0  0
 19 45  1  0  0  0  0
 20 46  1  0  0  0  0
 21 47  1  0  0  0  0
 22 48  1  0  0  0  0
 23 49  1  0  0  0  0
 25 50  1  0  0  0  0
 26 51  1  0  0  0  0
M  END
> <r_user_dG.exp>
-8.46

$$$$
1b
  -OEChem-05192314073D
 Structure written by MMmdl.
 51 53  0     1  0  0  0  0  0999 V2000
   18.2653  -13.2407   21.7065 N   0  0  0  0  0  0  0  0  0  0  0  0
   18.0666  -11.9445   21.0290 C   0  0  2  0  0  0  0  0  0  0  0  0
   17.3965  -13.7802   22.5963 C   0  0  0  0  0  0  0  0  0  0  0  0
   16.3982  -13.1682   22.9797 O   0  0  0  0  0  0  0  0  0  0  0  0
   16.6625  -11.7536   20.4056 C   0  0  0  0  0  0  0  0  0  0  0  0
   16.1638  -12.6466   19.7188 O   0  0  0  0  0  0  0  0  0  0  0  0
   19.1633  -11.8944   19.9556 C   0  0  0  0  0  0  0  0  0  0  0  0
   17.6504  -15.1803   23.1883 C   0  0  2  0  0  0  0  0  0  0  0  0
   16.0423  -10.5938   20.6504 N   0  0  0  0  0  0  0  0  0  0  0  0
   20.2631  -12.8149   20.4461 C   0  0  0  0  0  0  0  0  0  0  0  0
   16.4086  -15.9682   23.1113 N   0  0  0  0  0  0  0  0  0  0  0  0
   18.1359  -15.1116   24.6549 C   0  0  0  0  0  0  0  0  0  0  0  0
   14.7042  -10.2162   20.2151 C   0  0  0  0  0  0  0  0  0  0  0  0
   19.5455  -13.8412   21.3148 C   0  0  0  0  0  0  0  0  0  0  0  0
   19.5607  -14.6147   24.8273 C   0  0  0  0  0  0  0  0  0  0  0  0
   13.6411  -10.3567   21.2915 C   0  0  0  0  0  0  0  0  0  0  0  0
   19.8041  -13.3098   25.2934 C   0  0  0  0  0  0  0  0  0  0  0  0
   12.9051  -11.5528   21.4232 C   0  0  0  0  0  0  0  0  0  0  0  0
   21.1138  -12.8171   25.3982 C   0  0  0  0  0  0  0  0  0  0  0  0
   11.8942  -11.6572   22.4010 C   0  0  0  0  0  0  0  0  0  0  0  0
   22.2000  -13.6406   25.0541 C   0  0  0  0  0  0  0  0  0  0  0  0
   11.6200  -10.5698   23.2551 C   0  0  0  0  0  0  0  0  0  0  0  0
   21.9704  -14.9618   24.6258 C   0  0  0  0  0  0  0  0  0  0  0  0
   12.3724   -9.3839   23.1465 C   0  0  0  0  0  0  0  0  0  0  0  0
   20.6532  -15.4491   24.5107 C   0  0  0  0  0  0  0  0  0  0  0  0
   13.3735   -9.2784   22.1614 C   0  0  0  0  0  0  0  0  0  0  0  0
   12.1062   -8.0755   24.2428 Cl  0  0  0  0  0  0  0  0  0  0  0  0
   18.2415  -11.1288   21.7459 H   0  0  0  0  0  0  0  0  0  0  0  0
   15.3067  -12.3718   19.4149 H   0  0  0  0  0  0  0  0  0  0  0  0
   18.7709  -12.2468   18.9903 H   0  0  0  0  0  0  0  0  0  0  0  0
   19.5438  -10.8683   19.8442 H   0  0  0  0  0  0  0  0  0  0  0  0
   18.4302  -15.6734   22.5893 H   0  0  0  0  0  0  0  0  0  0  0  0
   20.7652  -13.3058   19.5994 H   0  0  0  0  0  0  0  0  0  0  0  0
   21.0032  -12.2554   21.0370 H   0  0  0  0  0  0  0  0  0  0  0  0
   16.5665  -16.8784   23.4941 H   0  0  0  0  0  0  0  0  0  0  0  0
   15.6892  -15.5081   23.6317 H   0  0  0  0  0  0  0  0  0  0  0  0
   17.4673  -14.4340   25.2061 H   0  0  0  0  0  0  0  0  0  0  0  0
   18.0705  -16.1217   25.0855 H   0  0  0  0  0  0  0  0  0  0  0  0
   14.7300   -9.1658   19.8895 H   0  0  0  0  0  0  0  0  0  0  0  0
   14.4233  -10.8565   19.3659 H   0  0  0  0  0  0  0  0  0  0  0  0
   20.1465  -14.0687   22.2076 H   0  0  0  0  0  0  0  0  0  0  0  0
   19.3719  -14.7656   20.7444 H   0  0  0  0  0  0  0  0  0  0  0  0
   18.9730  -12.6797   25.5739 H   0  0  0  0  0  0  0  0  0  0  0  0
   13.1161  -12.3899   20.7743 H   0  0  0  0  0  0  0  0  0  0  0  0
   21.2869  -11.8081   25.7422 H   0  0  0  0  0  0  0  0  0  0  0  0
   11.3288  -12.5725   22.4957 H   0  0  0  0  0  0  0  0  0  0  0  0
   23.2088  -13.2603   25.1182 H   0  0  0  0  0  0  0  0  0  0  0  0
   10.8340  -10.6458   23.9919 H   0  0  0  0  0  0  0  0  0  0  0  0
   22.8053  -15.6031   24.3850 H   0  0  0  0  0  0  0  0  0  0  0  0
   20.4799  -16.4624   24.1798 H   0  0  0  0  0  0  0  0  0  0  0  0
   13.9413   -8.3642   22.0710 H   0  0  0  0  0  0  0  0  0  0  0  0
  1  2  1  0  0  0  0
  1 14  1  0  0  0  0
  1  3  1  0  0  0  0
  2  5  1  0  0  0  0
  2  7  1  0  0  0  0
  3  8  1  0  0  0  0
  3  4  2  0  0  0  0
  5  6  1  0  0  0  0
  5  9  2  0  0  0  0
  7 10  1  0  0  0  0
  8 11  1  0  0  0  0
  8 12  1  0  0  0  0
  9 13  1  0  0  0  0
 10 14  1  0  0  0  0
 12 15  1  0  0  0  0
 13 16  1  0  0  0  0
 15 17  2  0  0  0  0
 15 25  1  0  0  0  0
 16 18  2  0  0  0  0
 16 26  1  0  0  0  0
 17 19  1  0  0  0  0
 18 20  1  0  0  0  0
 19 21  2  0  0  0  0
 20 22  2  0  0  0  0
 21 23  1  0  0  0  0
 22 24  1  0  0  0  0
 23 25  2  0  0  0  0
 24 26  2  0  0  0  0
 24 27  1  0  0  0  0
  2 28  1  0  0  0  0
  6 29  1  0  0  0  0
  7 30  1  0  0  0  0
  7 31  1  0  0  0  0
  8 32  1  0  0  0  0
 10 33  1  0  0  0  0
 10 34  1  0  0  0  0
 11 35  1  0  0  0  0
 11 36  1  0  0  0  0
 12 37  1  0  0  0  0
 12 38  1  0  0  0  0
 13 39  1  0  0  0  0
 13 40  1  0  0  0  0
 14 41  1  0  0  0  0
 14 42  1  0  0  0  0
 17 43  1  0  0  0  0
 18 44  1  0  0  0  0
 19 45  1  0  0  0  0
 20 46  1  0  0  0  0
 21 47  1  0  0  0  0
 22 48  1  0  0  0  0
 23 49  1  0  0  0  0
 25 50  1  0  0  0  0
 26 51  1  0  0  0  0
M  END
> <r_user_dG.exp>
-8.46

$$$$
1b
  -OEChem-05192314073D
 Structure written by MMmdl.
 51 53  0     1  0  0  0  0  0999 V2000
   18.2653  -13.2407   21.7065 N   0  0  0  0  0  0  0  0  0  0  0  0
   18.0666  -11.9445   21.0290 C   0  0  2  0  0  0  0  0  0  0  0  0
   17.3965  -13.7802   22.5963 C   0  0  0  0  0  0  0  0  0  0  0  0
   16.3982  -13.1682   22.9797 O   0  0  0  0  0  0  0  0  0  0  0  0
   16.6625  -11.7536   20.4056 C   0  0  0  0  0  0  0  0  0  0  0  0
   16.1638  -12.6466   19.7188 O   0  0  0  0  0  0  0  0  0  0  0  0
   19.1633  -11.8944   19.9556 C   0  0  0  0  0  0  0  0  0  0  0  0
   17.6504  -15.1803   23.1883 C   0  0  2  0  0  0  0  0  0  0  0  0
   16.0423  -10.5938   20.6504 N   0  0  0  0  0  0  0  0  0  0  0  0
   20.2631  -12.8149   20.4461 C   0  0  0  0  0  0  0  0  0  0  0  0
   16.4086  -15.9682   23.1113 N   0  0  0  0  0  0  0  0  0  0  0  0
   18.1359  -15.1116   24.6549 C   0  0  0  0  0  0  0  0  0  0  0  0
   14.7042  -10.2162   20.2151 C   0  0  0  0  0  0  0  0  0  0  0  0
   19.5455  -13.8412   21.3148 C   0  0  0  0  0  0  0  0  0  0  0  0
   19.5607  -14.6147   24.8273 C   0  0  0  0  0  0  0  0  0  0  0  0
   13.6411  -10.3567   21.2915 C   0  0  0  0  0  0  0  0  0  0  0  0
   19.8041  -13.3098   25.2934 C   0  0  0  0  0  0  0  0  0  0  0  0
   12.9051  -11.5528   21.4232 C   0  0  0  0  0  0  0  0  0  0  0  0
   21.1138  -12.8171   25.3982 C   0  0  0  0  0  0  0  0  0  0  0  0
   11.8942  -11.6572   22.4010 C   0  0  0  0  0  0  0  0  0  0  0  0
   22.2000  -13.6406   25.0541 C   0  0  0  0  0  0  0  0  0  0  0  0
   11.6200  -10.5698   23.2551 C   0  0  0  0  0  0  0  0  0  0  0  0
   21.9704  -14.9618   24.6258 C   0  0  0  0  0  0  0  0  0  0  0  0
   12.3724   -9.3839   23.1465 C   0  0  0  0  0  0  0  0  0  0  0  0
   20.6532  -15.4491   24.5107 C   0  0  0  0  0  0  0  0  0  0  0  0
   13.3735   -9.2784   22.1614 C   0  0  0  0  0  0  0  0  0  0  0  0
   12.1062   -8.0755   24.2428 Cl  0  0  0  0  0  0  0  0  0  0  0  0
   18.2415  -11.1288   21.7459 H   0  0  0  0  0  0  0  0  0  0  0  0
   16.8181  -14.2255   21.7734 H   0  0  0  0  0  0  0  0  0  0  0  0
   15.9151  -13.7047   23.5972 H   0  0  0  0  0  0  0  0  0  0  0  0
   18.7709  -12.2468   18.9903 H   0  0  0  0  0  0  0  0  0  0  0  0
   19.5438  -10.8683   19.8442 H   0  0  0  0  0  0  0  0  0  0  0  0
   16.5482   -9.9178   21.1862 H   0  0  0  0  0  0  0  0  0  0  0  0
   20.7652  -13.3058   19.5994 H   0  0  0  0  0  0  0  0  0  0  0  0
   21.0032  -12.2554   21.0370 H   0  0  0  0  0  0  0  0  0  0  0  0
   16.1212  -16.3031   24.0087 H   0  0  0  0  0  0  0  0  0  0  0  0
   17.4673  -14.4340   25.2061 H   0  0  0  0  0  0  0  0  0  0  0  0
   18.0705  -16.1217   25.0855 H   0  0  0  0  0  0  0  0  0  0  0  0
   14.7300   -9.1658   19.8895 H   0  0  0  0  0  0  0  0  0  0  0  0
   14.4233  -10.8565   19.3659 H   0  0  0  0  0  0  0  0  0  0  0  0
   20.1465  -14.0687   22.2076 H   0  0  0  0  0  0  0  0  0  0  0  0
   19.3719  -14.7656   20.7444 H   0  0  0  0  0  0  0  0  0  0  0  0
   18.9730  -12.6797   25.5739 H   0  0  0  0  0  0  0  0  0  0  0  0
   13.1161  -12.3899   20.7743 H   0  0  0  0  0  0  0  0  0  0  0  0
   21.2869  -11.8081   25.7422 H   0  0  0  0  0  0  0  0  0  0  0  0
   11.3288  -12.5725   22.4957 H   0  0  0  0  0  0  0  0  0  0  0  0
   23.2088  -13.2603   25.1182 H   0  0  0  0  0  0  0  0  0  0  0  0
   10.8340  -10.6458   23.9919 H   0  0  0  0  0  0  0  0  0  0  0  0
   22.8053  -15.6031   24.3850 H   0  0  0  0  0  0  0  0  0  0  0  0
   20.4799  -16.4624   24.1798 H   0  0  0  0  0  0  0  0  0  0  0  0
   13.9413   -8.3642   22.0710 H   0  0  0  0  0  0  0  0  0  0  0  0
  1  2  1  0  0  0  0
  1 14  1  0  0  0  0
  1  3  1  0  0  0  0
  2  5  1  0  0  0  0
  2  7  1  0  0  0  0
  3  8  1  0  0  0  0
  3  4  1  0  0  0  0
  5  6  2  0  0  0  0
  5  9  1  0  0  0  0
  7 10  1  0  0  0  0
  8 11  2  0  0  0  0
  8 12  1  0  0  0  0
  9 13  1  0  0  0  0
 10 14  1  0  0  0  0
 12 15  1  0  0  0  0
 13 16  1  0  0  0  0
 15 17  2  0  0  0  0
 15 25  1  0  0  0  0
 16 18  2  0  0  0  0
 16 26  1  0  0  0  0
 17 19  1  0  0  0  0
 18 20  1  0  0  0  0
 19 21  2  0  0  0  0
 20 22  2  0  0  0  0
 21 23  1  0  0  0  0
 22 24  1  0  0  0  0
 23 25  2  0  0  0  0
 24 26  2  0  0  0  0
 24 27  1  0  0  0  0
  2 28  1  0  0  0  0
  3 29  1  0  0  0  0
  4 30  1  0  0  0  0
  7 31  1  0  0  0  0
  7 32  1  0  0  0  0
  9 33  1  0  0  0  0
 10 34  1  0  0  0  0
 10 35  1  0  0  0  0
 11 36  1  0  0  0  0
 12 37  1  0  0  0  0
 12 38  1  0  0  0  0
 13 39  1  0  0  0  0
 13 40  1  0  0  0  0
 14 41  1  0  0  0  0
 14 42  1  0  0  0  0
 17 43  1  0  0  0  0
 18 44  1  0  0  0  0
 19 45  1  0  0  0  0
 20 46  1  0  0  0  0
 21 47  1  0  0  0  0
 22 48  1  0  0  0  0
 23 49  1  0  0  0  0
 25 50  1  0  0  0  0
 26 51  1  0  0  0  0
M  END
> <r_user_dG.exp>
-8.46

$$$$
1b
  -OEChem-05192314073D
 Structure written by MMmdl.
 51 53  0     1  0  0  0  0  0999 V2000
   18.2653  -13.2407   21.7065 N   0  0  0  0  0  0  0  0  0  0  0  0
   18.0666  -11.9445   21.0290 C   0  0  2  0  0  0  0  0  0  0  0  0
   17.3965  -13.7802   22.5963 C   0  0  0  0  0  0  0  0  0  0  0  0
   16.3982  -13.1682   22.9797 O   0  0  0  0  0  0  0  0  0  0  0  0
   16.6625  -11.7536   20.4056 C   0  0  0  0  0  0  0  0  0  0  0  0
   16.1638  -12.6466   19.7188 O   0  0  0  0  0  0  0  0  0  0  0  0
   19.1633  -11.8944   19.9556 C   0  0  0  0  0  0  0  0  0  0  0  0
   17.6504  -15.1803   23.1883 C   0  0  2  0  0  0  0  0  0  0  0  0
   16.0423  -10.5938   20.6504 N   0  0  0  0  0  0  0  0  0  0  0  0
   20.2631  -12.8149   20.4461 C   0  0  0  0  0  0  0  0  0  0  0  0
   16.4086  -15.9682   23.1113 N   0  0  0  0  0  0  0  0  0  0  0  0
   18.1359  -15.1116   24.6549 C   0  0  0  0  0  0  0  0  0  0  0  0
   14.7042  -10.2162   20.2151 C   0  0  0  0  0  0  0  0  0  0  0  0
   19.5455  -13.8412   21.3148 C   0  0  0  0  0  0  0  0  0  0  0  0
   19.5607  -14.6147   24.8273 C   0  0  0  0  0  0  0  0  0  0  0  0
   13.6411  -10.3567   21.2915 C   0  0  0  0  0  0  0  0  0  0  0  0
   19.8041  -13.3098   25.2934 C   0  0  0  0  0  0  0  0  0  0  0  0
   12.9051  -11.5528   21.4232 C   0  0  0  0  0  0  0  0  0  0  0  0
   21.1138  -12.8171   25.3982 C   0  0  0  0  0  0  0  0  0  0  0  0
   11.8942  -11.6572   22.4010 C   0  0  0  0  0  0  0  0  0  0  0  0
   22.2000  -13.6406   25.0541 C   0  0  0  0  0  0  0  0  0  0  0  0
   11.6200  -10.5698   23.2551 C   0  0  0  0  0  0  0  0  0  0  0  0
   21.9704  -14.9618   24.6258 C   0  0  0  0  0  0  0  0  0  0  0  0
   12.3724   -9.3839   23.1465 C   0  0  0  0  0  0  0  0  0  0  0  0
   20.6532  -15.4491   24.5107 C   0  0  0  0  0  0  0  0  0  0  0  0
   13.3735   -9.2784   22.1614 C   0  0  0  0  0  0  0  0  0  0  0  0
   12.1062   -8.0755   24.2428 Cl  0  0  0  0  0  0  0  0  0  0  0  0
   18.2415  -11.1288   21.7459 H   0  0  0  0  0  0  0  0  0  0  0  0
   16.8181  -14.2255   21.7734 H   0  0  0  0  0  0  0  0  0  0  0  0
   15.9151  -13.7047   23.5972 H   0  0  0  0  0  0  0  0  0  0  0  0
   15.3067  -12.3718   19.4149 H   0  0  0  0  0  0  0  0  0  0  0  0
   18.7709  -12.2468   18.9903 H   0  0  0  0  0  0  0  0  0  0  0  0
   19.5438  -10.8683   19.8442 H   0  0  0  0  0  0  0  0  0  0  0  0
   20.7652  -13.3058   19.5994 H   0  0  0  0  0  0  0  0  0  0  0  0
   21.0032  -12.2554   21.0370 H   0  0  0  0  0  0  0  0  0  0  0  0
   16.1212  -16.3031   24.0087 H   0  0  0  0  0  0  0  0  0  0  0  0
   17.4673  -14.4340   25.2061 H   0  0  0  0  0  0  0  0  0  0  0  0
   18.0705  -16.1217   25.0855 H   0  0  0  0  0  0  0  0  0  0  0  0
   14.7300   -9.1658   19.8895 H   0  0  0  0  0  0  0  0  0  0  0  0
   14.4233  -10.8565   19.3659 H   0  0  0  0  0  0  0  0  0  0  0  0
   20.1465  -14.0687   22.2076 H   0  0  0  0  0  0  0  0  0  0  0  0
   19.3719  -14.7656   20.7444 H   0  0  0  0  0  0  0  0  0  0  0  0
   18.9730  -12.6797   25.5739 H   0  0  0  0  0  0  0  0  0  0  0  0
   13.1161  -12.3899   20.7743 H   0  0  0  0  0  0  0  0  0  0  0  0
   21.2869  -11.8081   25.7422 H   0  0  0  0  0  0  0  0  0  0  0  0
   11.3288  -12.5725   22.4957 H   0  0  0  0  0  0  0  0  0  0  0  0
   23.2088  -13.2603   25.1182 H   0  0  0  0  0  0  0  0  0  0  0  0
   10.8340  -10.6458   23.9919 H   0  0  0  0  0  0  0  0  0  0  0  0
   22.8053  -15.6031   24.3850 H   0  0  0  0  0  0  0  0  0  0  0  0
   20.4799  -16.4624   24.1798 H   0  0  0  0  0  0  0  0  0  0  0  0
   13.9413   -8.3642   22.0710 H   0  0  0  0  0  0  0  0  0  0  0  0
  1  2  1  0  0  0  0
  1 14  1  0  0  0  0
  1  3  1  0  0  0  0
  2  5  1  0  0  0  0
  2  7  1  0  0  0  0
  3  8  1  0  0  0  0
  3  4  1  0  0  0  0
  5  6  1  0  0  0  0
  5  9  2  0  0  0  0
  7 10  1  0  0  0  0
  8 11  2  0  0  0  0
  8 12  1  0  0  0  0
  9 13  1  0  0  0  0
 10 14  1  0  0  0  0
 12 15  1  0  0  0  0
 13 16  1  0  0  0  0
 15 17  2  0  0  0  0
 15 25  1  0  0  0  0
 16 18  2  0  0  0  0
 16 26  1  0  0  0  0
 17 19  1  0  0  0  0
 18 20  1  0  0  0  0
 19 21  2  0  0  0  0
 20 22  2  0  0  0  0
 21 23  1  0  0  0  0
 22 24  1  0  0  0  0
 23 25  2  0  0  0  0
 24 26  2  0  0  0  0
 24 27  1  0  0  0  0
  2 28  1  0  0  0  0
  3 29  1  0  0  0  0
  4 30  1  0  0  0  0
  6 31  1  0  0  0  0
  7 32  1  0  0  0  0
  7 33  1  0  0  0  0
 10 34  1  0  0  0  0
 10 35  1  0  0  0  0
 11 36  1  0  0  0  0
 12 37  1  0  0  0  0
 12 38  1  0  0  0  0
 13 39  1  0  0  0  0
 13 40  1  0  0  0  0
 14 41  1  0  0  0  0
 14 42  1  0  0  0  0
 17 43  1  0  0  0  0
 18 44  1  0  0  0  0
 19 45  1  0  0  0  0
 20 46  1  0  0  0  0
 21 47  1  0  0  0  0
 22 48  1  0  0  0  0
 23 49  1  0  0  0  0
 25 50  1  0  0  0  0
 26 51  1  0  0  0  0
M  END
> <r_user_dG.exp>
-8.46

$$$$
1b
  -OEChem-05192314073D
 Structure written by MMmdl.
 51 53  0     1  0  0  0  0  0999 V2000
   18.2653  -13.2407   21.7065 N   0  0  0  0  0  0  0  0  0  0  0  0
   18.0666  -11.9445   21.0290 C   0  0  2  0  0  0  0  0  0  0  0  0
   17.3965  -13.7802   22.5963 C   0  0  0  0  0  0  0  0  0  0  0  0
   16.3982  -13.1682   22.9797 O   0  0  0  0  0  0  0  0  0  0  0  0
   16.6625  -11.7536   20.4056 C   0  0  0  0  0  0  0  0  0  0  0  0
   16.1638  -12.6466   19.7188 O   0  0  0  0  0  0  0  0  0  0  0  0
   19.1633  -11.8944   19.9556 C   0  0  0  0  0  0  0  0  0  0  0  0
   17.6504  -15.1803   23.1883 C   0  0  2  0  0  0  0  0  0  0  0  0
   16.0423  -10.5938   20.6504 N   0  0  0  0  0  0  0  0  0  0  0  0
   20.2631  -12.8149   20.4461 C   0  0  0  0  0  0  0  0  0  0  0  0
   16.4086  -15.9682   23.1113 N   0  0  0  0  0  0  0  0  0  0  0  0
   18.1359  -15.1116   24.6549 C   0  0  0  0  0  0  0  0  0  0  0  0
   14.7042  -10.2162   20.2151 C   0  0  0  0  0  0  0  0  0  0  0  0
   19.5455  -13.8412   21.3148 C   0  0  0  0  0  0  0  0  0  0  0  0
   19.5607  -14.6147   24.8273 C   0  0  0  0  0  0  0  0  0  0  0  0
   13.6411  -10.3567   21.2915 C   0  0  0  0  0  0  0  0  0  0  0  0
   19.8041  -13.3098   25.2934 C   0  0  0  0  0  0  0  0  0  0  0  0
   12.9051  -11.5528   21.4232 C   0  0  0  0  0  0  0  0  0  0  0  0
   21.1138  -12.8171   25.3982 C   0  0  0  0  0  0  0  0  0  0  0  0
   11.8942  -11.6572   22.4010 C   0  0  0  0  0  0  0  0  0  0  0  0
   22.2000  -13.6406   25.0541 C   0  0  0  0  0  0  0  0  0  0  0  0
   11.6200  -10.5698   23.2551 C   0  0  0  0  0  0  0  0  0  0  0  0
   21.9704  -14.9618   24.6258 C   0  0  0  0  0  0  0  0  0  0  0  0
   12.3724   -9.3839   23.1465 C   0  0  0  0  0  0  0  0  0  0  0  0
   20.6532  -15.4491   24.5107 C   0  0  0  0  0  0  0  0  0  0  0  0
   13.3735   -9.2784   22.1614 C   0  0  0  0  0  0  0  0  0  0  0  0
   12.1062   -8.0755   24.2428 Cl  0  0  0  0  0  0  0  0  0  0  0  0
   18.2415  -11.1288   21.7459 H   0  0  0  0  0  0  0  0  0  0  0  0
   15.9151  -13.7047   23.5972 H   0  0  0  0  0  0  0  0  0  0  0  0
   18.7709  -12.2468   18.9903 H   0  0  0  0  0  0  0  0  0  0  0  0
   19.5438  -10.8683   19.8442 H   0  0  0  0  0  0  0  0  0  0  0  0
   16.5482   -9.9178   21.1862 H   0  0  0  0  0  0  0  0  0  0  0  0
   20.7652  -13.3058   19.5994 H   0  0  0  0  0  0  0  0  0  0  0  0
   21.0032  -12.2554   21.0370 H   0  0  0  0  0  0  0  0  0  0  0  0
   16.5665  -16.8784   23.4941 H   0  0  0  0  0  0  0  0  0  0  0  0
   15.6892  -15.5081   23.6317 H   0  0  0  0  0  0  0  0  0  0  0  0
   17.4673  -14.4340   25.2061 H   0  0  0  0  0  0  0  0  0  0  0  0
   18.0705  -16.1217   25.0855 H   0  0  0  0  0  0  0  0  0  0  0  0
   14.7300   -9.1658   19.8895 H   0  0  0  0  0  0  0  0  0  0  0  0
   14.4233  -10.8565   19.3659 H   0  0  0  0  0  0  0  0  0  0  0  0
   20.1465  -14.0687   22.2076 H   0  0  0  0  0  0  0  0  0  0  0  0
   19.3719  -14.7656   20.7444 H   0  0  0  0  0  0  0  0  0  0  0  0
   18.9730  -12.6797   25.5739 H   0  0  0  0  0  0  0  0  0  0  0  0
   13.1161  -12.3899   20.7743 H   0  0  0  0  0  0  0  0  0  0  0  0
   21.2869  -11.8081   25.7422 H   0  0  0  0  0  0  0  0  0  0  0  0
   11.3288  -12.5725   22.4957 H   0  0  0  0  0  0  0  0  0  0  0  0
   23.2088  -13.2603   25.1182 H   0  0  0  0  0  0  0  0  0  0  0  0
   10.8340  -10.6458   23.9919 H   0  0  0  0  0  0  0  0  0  0  0  0
   22.8053  -15.6031   24.3850 H   0  0  0  0  0  0  0  0  0  0  0  0
   20.4799  -16.4624   24.1798 H   0  0  0  0  0  0  0  0  0  0  0  0
   13.9413   -8.3642   22.0710 H   0  0  0  0  0  0  0  0  0  0  0  0
  1  2  1  0  0  0  0
  1 14  1  0  0  0  0
  1  3  1  0  0  0  0
  2  5  1  0  0  0  0
  2  7  1  0  0  0  0
  3  8  2  0  0  0  0
  3  4  1  0  0  0  0
  5  6  2  0  0  0  0
  5  9  1  0  0  0  0
  7 10  1  0  0  0  0
  8 11  1  0  0  0  0
  8 12  1  0  0  0  0
  9 13  1  0  0  0  0
 10 14  1  0  0  0  0
 12 15  1  0  0  0  0
 13 16  1  0  0  0  0
 15 17  2  0  0  0  0
 15 25  1  0  0  0  0
 16 18  2  0  0  0  0
 16 26  1  0  0  0  0
 17 19  1  0  0  0  0
 18 20  1  0  0  0  0
 19 21  2  0  0  0  0
 20 22  2  0  0  0  0
 21 23  1  0  0  0  0
 22 24  1  0  0  0  0
 23 25  2  0  0  0  0
 24 26  2  0  0  0  0
 24 27  1  0  0  0  0
  2 28  1  0  0  0  0
  4 29  1  0  0  0  0
  7 30  1  0  0  0  0
  7 31  1  0  0  0  0
  9 32  1  0  0  0  0
 10 33  1  0  0  0  0
 10 34  1  0  0  0  0
 11 35  1  0  0  0  0
 11 36  1  0  0  0  0
 12 37  1  0  0  0  0
 12 38  1  0  0  0  0
 13 39  1  0  0  0  0
 13 40  1  0  0  0  0
 14 41  1  0  0  0  0
 14 42  1  0  0  0  0
 17 43  1  0  0  0  0
 18 44  1  0  0  0  0
 19 45  1  0  0  0  0
 20 46  1  0  0  0  0
 21 47  1  0  0  0  0
 22 48  1  0  0  0  0
 23 49  1  0  0  0  0
 25 50  1  0  0  0  0
 26 51  1  0  0  0  0
M  END
> <r_user_dG.exp>
-8.46

$$$$
1b
  -OEChem-05192314073D
 Structure written by MMmdl.
 51 53  0     1  0  0  0  0  0999 V2000
   18.2653  -13.2407   21.7065 N   0  0  0  0  0  0  0  0  0  0  0  0
   18.0666  -11.9445   21.0290 C   0  0  2  0  0  0  0  0  0  0  0  0
   17.3965  -13.7802   22.5963 C   0  0  0  0  0  0  0  0  0  0  0  0
   16.3982  -13.1682   22.9797 O   0  0  0  0  0  0  0  0  0  0  0  0
   16.6625  -11.7536   20.4056 C   0  0  0  0  0  0  0  0  0  0  0  0
   16.1638  -12.6466   19.7188 O   0  0  0  0  0  0  0  0  0  0  0  0
   19.1633  -11.8944   19.9556 C   0  0  0  0  0  0  0  0  0  0  0  0
   17.6504  -15.1803   23.1883 C   0  0  2  0  0  0  0  0  0  0  0  0
   16.0423  -10.5938   20.6504 N   0  0  0  0  0  0  0  0  0  0  0  0
   20.2631  -12.8149   20.4461 C   0  0  0  0  0  0  0  0  0  0  0  0
   16.4086  -15.9682   23.1113 N   0  0  0  0  0  0  0  0  0  0  0  0
   18.1359  -15.1116   24.6549 C   0  0  0  0  0  0  0  0  0  0  0  0
   14.7042  -10.2162   20.2151 C   0  0  0  0  0  0  0  0  0  0  0  0
   19.5455  -13.8412   21.3148 C   0  0  0  0  0  0  0  0  0  0  0  0
   19.5607  -14.6147   24.8273 C   0  0  0  0  0  0  0  0  0  0  0  0
   13.6411  -10.3567   21.2915 C   0  0  0  0  0  0  0  0  0  0  0  0
   19.8041  -13.3098   25.2934 C   0  0  0  0  0  0  0  0  0  0  0  0
   12.9051  -11.5528   21.4232 C   0  0  0  0  0  0  0  0  0  0  0  0
   21.1138  -12.8171   25.3982 C   0  0  0  0  0  0  0  0  0  0  0  0
   11.8942  -11.6572   22.4010 C   0  0  0  0  0  0  0  0  0  0  0  0
   22.2000  -13.6406   25.0541 C   0  0  0  0  0  0  0  0  0  0  0  0
   11.6200  -10.5698   23.2551 C   0  0  0  0  0  0  0  0  0  0  0  0
   21.9704  -14.9618   24.6258 C   0  0  0  0  0  0  0  0  0  0  0  0
   12.3724   -9.3839   23.1465 C   0  0  0  0  0  0  0  0  0  0  0  0
   20.6532  -15.4491   24.5107 C   0  0  0  0  0  0  0  0  0  0  0  0
   13.3735   -9.2784   22.1614 C   0  0  0  0  0  0  0  0  0  0  0  0
   12.1062   -8.0755   24.2428 Cl  0  0  0  0  0  0  0  0  0  0  0  0
   18.2415  -11.1288   21.7459 H   0  0  0  0  0  0  0  0  0  0  0  0
   15.9151  -13.7047   23.5972 H   0  0  0  0  0  0  0  0  0  0  0  0
   15.3067  -12.3718   19.4149 H   0  0  0  0  0  0  0  0  0  0  0  0
   18.7709  -12.2468   18.9903 H   0  0  0  0  0  0  0  0  0  0  0  0
   19.5438  -10.8683   19.8442 H   0  0  0  0  0  0  0  0  0  0  0  0
   20.7652  -13.3058   19.5994 H   0  0  0  0  0  0  0  0  0  0  0  0
   21.0032  -12.2554   21.0370 H   0  0  0  0  0  0  0  0  0  0  0  0
   16.5665  -16.8784   23.4941 H   0  0  0  0  0  0  0  0  0  0  0  0
   15.6892  -15.5081   23.6317 H   0  0  0  0  0  0  0  0  0  0  0  0
   17.4673  -14.4340   25.2061 H   0  0  0  0  0  0  0  0  0  0  0  0
   18.0705  -16.1217   25.0855 H   0  0  0  0  0  0  0  0  0  0  0  0
   14.7300   -9.1658   19.8895 H   0  0  0  0  0  0  0  0  0  0  0  0
   14.4233  -10.8565   19.3659 H   0  0  0  0  0  0  0  0  0  0  0  0
   20.1465  -14.0687   22.2076 H   0  0  0  0  0  0  0  0  0  0  0  0
   19.3719  -14.7656   20.7444 H   0  0  0  0  0  0  0  0  0  0  0  0
   18.9730  -12.6797   25.5739 H   0  0  0  0  0  0  0  0  0  0  0  0
   13.1161  -12.3899   20.7743 H   0  0  0  0  0  0  0  0  0  0  0  0
   21.2869  -11.8081   25.7422 H   0  0  0  0  0  0  0  0  0  0  0  0
   11.3288  -12.5725   22.4957 H   0  0  0  0  0  0  0  0  0  0  0  0
   23.2088  -13.2603   25.1182 H   0  0  0  0  0  0  0  0  0  0  0  0
   10.8340  -10.6458   23.9919 H   0  0  0  0  0  0  0  0  0  0  0  0
   22.8053  -15.6031   24.3850 H   0  0  0  0  0  0  0  0  0  0  0  0
   20.4799  -16.4624   24.1798 H   0  0  0  0  0  0  0  0  0  0  0  0
   13.9413   -8.3642   22.0710 H   0  0  0  0  0  0  0  0  0  0  0  0
  1  2  1  0  0  0  0
  1 14  1  0  0  0  0
  1  3  1  0  0  0  0
  2  5  1  0  0  0  0
  2  7  1  0  0  0  0
  3  8  2  0  0  0  0
  3  4  1  0  0  0  0
  5  6  1  0  0  0  0
  5  9  2  0  0  0  0
  7 10  1  0  0  0  0
  8 11  1  0  0  0  0
  8 12  1  0  0  0  0
  9 13  1  0  0  0  0
 10 14  1  0  0  0  0
 12 15  1  0  0  0  0
 13 16  1  0  0  0  0
 15 17  2  0  0  0  0
 15 25  1  0  0  0  0
 16 18  2  0  0  0  0
 16 26  1  0  0  0  0
 17 19  1  0  0  0  0
 18 20  1  0  0  0  0
 19 21  2  0  0  0  0
 20 22  2  0  0  0  0
 21 23  1  0  0  0  0
 22 24  1  0  0  0  0
 23 25  2  0  0  0  0
 24 26  2  0  0  0  0
 24 27  1  0  0  0  0
  2 28  1  0  0  0  0
  4 29  1  0  0  0  0
  6 30  1  0  0  0  0
  7 31  1  0  0  0  0
  7 32  1  0  0  0  0
 10 33  1  0  0  0  0
 10 34  1  0  0  0  0
 11 35  1  0  0  0  0
 11 36  1  0  0  0  0
 12 37  1  0  0  0  0
 12 38  1  0  0  0  0
 13 39  1  0  0  0  0
 13 40  1  0  0  0  0
 14 41  1  0  0  0  0
 14 42  1  0  0  0  0
 17 43  1  0  0  0  0
 18 44  1  0  0  0  0
 19 45  1  0  0  0  0
 20 46  1  0  0  0  0
 21 47  1  0  0  0  0
 22 48  1  0  0  0  0
 23 49  1  0  0  0  0
 25 50  1  0  0  0  0
 26 51  1  0  0  0  0
M  END
> <r_user_dG.exp>
-8.46

$$$$
