1c
  -OEChem-05192314073D
 Structure written by MMmdl.
 51 53  0     1  0  0  0  0  0999 V2000
   18.2567  -13.2370   21.7047 N   0  0  0  0  0  0  0  0  0  0  0  0
   18.0563  -11.9400   21.0292 C   0  0  2  0  0  0  0  0  0  0  0  0
   17.3896  -13.7779   22.5952 C   0  0  0  0  0  0  0  0  0  0  0  0
   16.3917  -13.1666   22.9805 O   0  0  0  0  0  0  0  0  0  0  0  0
   16.6512  -11.7486   20.4074 C   0  0  0  0  0  0  0  0  0  0  0  0
   16.1521  -12.6411   19.7201 O   0  0  0  0  0  0  0  0  0  0  0  0
   19.1524  -11.8879   19.9553 C   0  0  0  0  0  0  0  0  0  0  0  0
   17.6454  -15.1784   23.1855 C   0  0  2  0  0  0  0  0  0  0  0  0
   16.0303  -10.5893   20.6541 N   0  0  0  0  0  0  0  0  0  0  0  0
   20.2529  -12.8095   20.4423 C   0  0  0  0  0  0  0  0  0  0  0  0
   16.4042  -15.9674   23.1089 N   0  0  0  0  0  0  0  0  0  0  0  0
   18.1324  -15.1110   24.6516 C   0  0  0  0  0  0  0  0  0  0  0  0
   14.6909  -10.2121   20.2216 C   0  0  0  0  0  0  0  0  0  0  0  0
   19.5366  -13.8367   21.3109 C   0  0  0  0  0  0  0  0  0  0  0  0
   19.5574  -14.6140   24.8234 C   0  0  0  0  0  0  0  0  0  0  0  0
   13.6305  -10.3468   21.3020 C   0  0  0  0  0  0  0  0  0  0  0  0
   19.8009  -13.3110   25.2946 C   0  0  0  0  0  0  0  0  0  0  0  0
   12.8881  -11.5388   21.4361 C   0  0  0  0  0  0  0  0  0  0  0  0
   21.1106  -12.8184   25.4002 C   0  0  0  0  0  0  0  0  0  0  0  0
   11.8799  -11.6379   22.4174 C   0  0  0  0  0  0  0  0  0  0  0  0
   22.1968  -13.6402   25.0518 C   0  0  0  0  0  0  0  0  0  0  0  0
   11.6148  -10.5494   23.2729 C   0  0  0  0  0  0  0  0  0  0  0  0
   21.9671  -14.9595   24.6177 C   0  0  0  0  0  0  0  0  0  0  0  0
   12.3735   -9.3681   23.1621 C   0  0  0  0  0  0  0  0  0  0  0  0
   20.6499  -15.4468   24.5018 C   0  0  0  0  0  0  0  0  0  0  0  0
   13.3715   -9.2675   22.1733 C   0  0  0  0  0  0  0  0  0  0  0  0
   12.0950   -7.9251   24.3750 Br  0  0  0  0  0  0  0  0  0  0  0  0
   18.2315  -11.1253   21.7472 H   0  0  0  0  0  0  0  0  0  0  0  0
   18.7592  -12.2380   18.9895 H   0  0  0  0  0  0  0  0  0  0  0  0
   19.5328  -10.8616   19.8459 H   0  0  0  0  0  0  0  0  0  0  0  0
   18.4250  -15.6701   22.5851 H   0  0  0  0  0  0  0  0  0  0  0  0
   16.5367   -9.9133   21.1895 H   0  0  0  0  0  0  0  0  0  0  0  0
   20.7532  -13.2994   19.5939 H   0  0  0  0  0  0  0  0  0  0  0  0
   20.9944  -12.2511   21.0325 H   0  0  0  0  0  0  0  0  0  0  0  0
   16.5634  -16.8779   23.4906 H   0  0  0  0  0  0  0  0  0  0  0  0
   15.6849  -15.5085   23.6305 H   0  0  0  0  0  0  0  0  0  0  0  0
   17.4642  -14.4341   25.2041 H   0  0  0  0  0  0  0  0  0  0  0  0
   18.0675  -16.1215   25.0813 H   0  0  0  0  0  0  0  0  0  0  0  0
   14.7168   -9.1631   19.8915 H   0  0  0  0  0  0  0  0  0  0  0  0
   14.4066  -10.8557   19.3760 H   0  0  0  0  0  0  0  0  0  0  0  0
   20.1387  -14.0648   22.2028 H   0  0  0  0  0  0  0  0  0  0  0  0
   19.3626  -14.7606   20.7399 H   0  0  0  0  0  0  0  0  0  0  0  0
   18.9699  -12.6823   25.5785 H   0  0  0  0  0  0  0  0  0  0  0  0
   13.0921  -12.3769   20.7862 H   0  0  0  0  0  0  0  0  0  0  0  0
   21.2837  -11.8108   25.7482 H   0  0  0  0  0  0  0  0  0  0  0  0
   11.3096  -12.5500   22.5136 H   0  0  0  0  0  0  0  0  0  0  0  0
   23.2056  -13.2601   25.1171 H   0  0  0  0  0  0  0  0  0  0  0  0
   10.8309  -10.6212   24.0123 H   0  0  0  0  0  0  0  0  0  0  0  0
   22.8020  -15.5994   24.3730 H   0  0  0  0  0  0  0  0  0  0  0  0
   20.4766  -16.4587   24.1665 H   0  0  0  0  0  0  0  0  0  0  0  0
   13.9436   -8.3561   22.0812 H   0  0  0  0  0  0  0  0  0  0  0  0
  1  2  1  0  0  0  0
  1 14  1  0  0  0  0
  1  3  1  0  0  0  0
  2  5  1  0  0  0  0
  2  7  1  0  0  0  0
  3  8  1  0  0  0  0
  3  4  2  0  0  0  0
  5  6  2  0  0  0  0
  5  9  1  0  0  0  0
  7 10  1  0  0  0  0
  8 11  1  0  0  0  0
  8 12  1  0  0  0  0
  9 13  1  0  0  0  0
 10 14  1  0  0  0  0
 12 15  1  0  0  0  0
 13 16  1  0  0  0  0
 15 17  2  0  0  0  0
 15 25  1  0  0  0  0
 16 18  2  0  0  0  0
 16 26  1  0  0  0  0
 17 19  1  0  0  0  0
 18 20  1  0  0  0  0
 19 21  2  0  0  0  0
 20 22  2  0  0  0  0
 21 23  1  0  0  0  0
 22 24  1  0  0  0  0
 23 25  2  0  0  0  0
 24 26  2  0  0  0  0
 24 27  1  0  0  0  0
  2 28  1  0  0  0  0
  7 29  1  0  0  0  0
  7 30  1  0  0  0  0
  8 31  1  0  0  0  0
  9 32  1  0  0  0  0
 10 33  1  0  0  0  0
 10 34  1  0  0  0  0
 11 35  1  0  0  0  0
 11 36  1  0  0  0  0
 12 37  1  0  0  0  0
 12 38  1  0  0  0  0
 13 39  1  0  0  0  0
 13 40  1  0  0  0  0
 14 41  1  0  0  0  0
 14 42  1  0  0  0  0
 17 43  1  0  0  0  0
 18 44  1  0  0  0  0
 19 45  1  0  0  0  0
 20 46  1  0  0  0  0
 21 47  1  0  0  0  0
 22 48  1  0  0  0  0
 23 49  1  0  0  0  0
 25 50  1  0  0  0  0
 26 51  1  0  0  0  0
M  END
> <r_user_dG.exp>
-8.56

$$$$
1c
  -OEChem-05192314073D
 Structure written by MMmdl.
 51 53  0     1  0  0  0  0  0999 V2000
   18.2567  -13.2370   21.7047 N   0  0  0  0  0  0  0  0  0  0  0  0
   18.0563  -11.9400   21.0292 C   0  0  2  0  0  0  0  0  0  0  0  0
   17.3896  -13.7779   22.5952 C   0  0  0  0  0  0  0  0  0  0  0  0
   16.3917  -13.1666   22.9805 O   0  0  0  0  0  0  0  0  0  0  0  0
   16.6512  -11.7486   20.4074 C   0  0  0  0  0  0  0  0  0  0  0  0
   16.1521  -12.6411   19.7201 O   0  0  0  0  0  0  0  0  0  0  0  0
   19.1524  -11.8879   19.9553 C   0  0  0  0  0  0  0  0  0  0  0  0
   17.6454  -15.1784   23.1855 C   0  0  2  0  0  0  0  0  0  0  0  0
   16.0303  -10.5893   20.6541 N   0  0  0  0  0  0  0  0  0  0  0  0
   20.2529  -12.8095   20.4423 C   0  0  0  0  0  0  0  0  0  0  0  0
   16.4042  -15.9674   23.1089 N   0  0  0  0  0  0  0  0  0  0  0  0
   18.1324  -15.1110   24.6516 C   0  0  0  0  0  0  0  0  0  0  0  0
   14.6909  -10.2121   20.2216 C   0  0  0  0  0  0  0  0  0  0  0  0
   19.5366  -13.8367   21.3109 C   0  0  0  0  0  0  0  0  0  0  0  0
   19.5574  -14.6140   24.8234 C   0  0  0  0  0  0  0  0  0  0  0  0
   13.6305  -10.3468   21.3020 C   0  0  0  0  0  0  0  0  0  0  0  0
   19.8009  -13.3110   25.2946 C   0  0  0  0  0  0  0  0  0  0  0  0
   12.8881  -11.5388   21.4361 C   0  0  0  0  0  0  0  0  0  0  0  0
   21.1106  -12.8184   25.4002 C   0  0  0  0  0  0  0  0  0  0  0  0
   11.8799  -11.6379   22.4174 C   0  0  0  0  0  0  0  0  0  0  0  0
   22.1968  -13.6402   25.0518 C   0  0  0  0  0  0  0  0  0  0  0  0
   11.6148  -10.5494   23.2729 C   0  0  0  0  0  0  0  0  0  0  0  0
   21.9671  -14.9595   24.6177 C   0  0  0  0  0  0  0  0  0  0  0  0
   12.3735   -9.3681   23.1621 C   0  0  0  0  0  0  0  0  0  0  0  0
   20.6499  -15.4468   24.5018 C   0  0  0  0  0  0  0  0  0  0  0  0
   13.3715   -9.2675   22.1733 C   0  0  0  0  0  0  0  0  0  0  0  0
   12.0950   -7.9251   24.3750 Br  0  0  0  0  0  0  0  0  0  0  0  0
   18.2315  -11.1253   21.7472 H   0  0  0  0  0  0  0  0  0  0  0  0
   15.2946  -12.3662   19.4174 H   0  0  0  0  0  0  0  0  0  0  0  0
   18.7592  -12.2380   18.9895 H   0  0  0  0  0  0  0  0  0  0  0  0
   19.5328  -10.8616   19.8459 H   0  0  0  0  0  0  0  0  0  0  0  0
   18.4250  -15.6701   22.5851 H   0  0  0  0  0  0  0  0  0  0  0  0
   20.7532  -13.2994   19.5939 H   0  0  0  0  0  0  0  0  0  0  0  0
   20.9944  -12.2511   21.0325 H   0  0  0  0  0  0  0  0  0  0  0  0
   16.5634  -16.8779   23.4906 H   0  0  0  0  0  0  0  0  0  0  0  0
   15.6849  -15.5085   23.6305 H   0  0  0  0  0  0  0  0  0  0  0  0
   17.4642  -14.4341   25.2041 H   0  0  0  0  0  0  0  0  0  0  0  0
   18.0675  -16.1215   25.0813 H   0  0  0  0  0  0  0  0  0  0  0  0
   14.7168   -9.1631   19.8915 H   0  0  0  0  0  0  0  0  0  0  0  0
   14.4066  -10.8557   19.3760 H   0  0  0  0  0  0  0  0  0  0  0  0
   20.1387  -14.0648   22.2028 H   0  0  0  0  0  0  0  0  0  0  0  0
   19.3626  -14.7606   20.7399 H   0  0  0  0  0  0  0  0  0  0  0  0
   18.9699  -12.6823   25.5785 H   0  0  0  0  0  0  0  0  0  0  0  0
   13.0921  -12.3769   20.7862 H   0  0  0  0  0  0  0  0  0  0  0  0
   21.2837  -11.8108   25.7482 H   0  0  0  0  0  0  0  0  0  0  0  0
   11.3096  -12.5500   22.5136 H   0  0  0  0  0  0  0  0  0  0  0  0
   23.2056  -13.2601   25.1171 H   0  0  0  0  0  0  0  0  0  0  0  0
   10.8309  -10.6212   24.0123 H   0  0  0  0  0  0  0  0  0  0  0  0
   22.8020  -15.5994   24.3730 H   0  0  0  0  0  0  0  0  0  0  0  0
   20.4766  -16.4587   24.1665 H   0  0  0  0  0  0  0  0  0  0  0  0
   13.9436   -8.3561   22.0812 H   0  0  0  0  0  0  0  0  0  0  0  0
  1  2  1  0  0  0  0
  1 14  1  0  0  0  0
  1  3  1  0  0  0  0
  2  5  1  0  0  0  0
  2  7  1  0  0  0  0
  3  8  1  0  0  0  0
  3  4  2  0  0  0  0
  5  6  1  0  0  0  0
  5  9  2  0  0  0  0
  7 10  1  0  0  0  0
  8 11  1  0  0  0  0
  8 12  1  0  0  0  0
  9 13  1  0  0  0  0
 10 14  1  0  0  0  0
 12 15  1  0  0  0  0
 13 16  1  0  0  0  0
 15 17  2  0  0  0  0
 15 25  1  0  0  0  0
 16 18  2  0  0  0  0
 16 26  1  0  0  0  0
 17 19  1  0  0  0  0
 18 20  1  0  0  0  0
 19 21  2  0  0  0  0
 20 22  2  0  0  0  0
 21 23  1  0  0  0  0
 22 24  1  0  0  0  0
 23 25  2  0  0  0  0
 24 26  2  0  0  0  0
 24 27  1  0  0  0  0
  2 28  1  0  0  0  0
  6 29  1  0  0  0  0
  7 30  1  0  0  0  0
  7 31  1  0  0  0  0
  8 32  1  0  0  0  0
 10 33  1  0  0  0  0
 10 34  1  0  0  0  0
 11 35  1  0  0  0  0
 11 36  1  0  0  0  0
 12 37  1  0  0  0  0
 12 38  1  0  0  0  0
 13 39  1  0  0  0  0
 13 40  1  0  0  0  0
 14 41  1  0  0  0  0
 14 42  1  0  0  0  0
 17 43  1  0  0  0  0
 18 44  1  0  0  0  0
 19 45  1  0  0  0  0
 20 46  1  0  0  0  0
 21 47  1  0  0  0  0
 22 48  1  0  0  0  0
 23 49  1  0  0  0  0
 25 50  1  0  0  0  0
 26 51  1  0  0  0  0
M  END
> <r_user_dG.exp>
-8.56

$$$$
1c
  -OEChem-05192314073D
 Structure written by MMmdl.
 51 53  0     1  0  0  0  0  0999 V2000
   18.2567  -13.2370   21.7047 N   0  0  0  0  0  0  0  0  0  0  0  0
   18.0563  -11.9400   21.0292 C   0  0  2  0  0  0  0  0  0  0  0  0
   17.3896  -13.7779   22.5952 C   0  0  0  0  0  0  0  0  0  0  0  0
   16.3917  -13.1666   22.9805 O   0  0  0  0  0  0  0  0  0  0  0  0
   16.6512  -11.7486   20.4074 C   0  0  0  0  0  0  0  0  0  0  0  0
   16.1521  -12.6411   19.7201 O   0  0  0  0  0  0  0  0  0  0  0  0
   19.1524  -11.8879   19.9553 C   0  0  0  0  0  0  0  0  0  0  0  0
   17.6454  -15.1784   23.1855 C   0  0  2  0  0  0  0  0  0  0  0  0
   16.0303  -10.5893   20.6541 N   0  0  0  0  0  0  0  0  0  0  0  0
   20.2529  -12.8095   20.4423 C   0  0  0  0  0  0  0  0  0  0  0  0
   16.4042  -15.9674   23.1089 N   0  0  0  0  0  0  0  0  0  0  0  0
   18.1324  -15.1110   24.6516 C   0  0  0  0  0  0  0  0  0  0  0  0
   14.6909  -10.2121   20.2216 C   0  0  0  0  0  0  0  0  0  0  0  0
   19.5366  -13.8367   21.3109 C   0  0  0  0  0  0  0  0  0  0  0  0
   19.5574  -14.6140   24.8234 C   0  0  0  0  0  0  0  0  0  0  0  0
   13.6305  -10.3468   21.3020 C   0  0  0  0  0  0  0  0  0  0  0  0
   19.8009  -13.3110   25.2946 C   0  0  0  0  0  0  0  0  0  0  0  0
   12.8881  -11.5388   21.4361 C   0  0  0  0  0  0  0  0  0  0  0  0
   21.1106  -12.8184   25.4002 C   0  0  0  0  0  0  0  0  0  0  0  0
   11.8799  -11.6379   22.4174 C   0  0  0  0  0  0  0  0  0  0  0  0
   22.1968  -13.6402   25.0518 C   0  0  0  0  0  0  0  0  0  0  0  0
   11.6148  -10.5494   23.2729 C   0  0  0  0  0  0  0  0  0  0  0  0
   21.9671  -14.9595   24.6177 C   0  0  0  0  0  0  0  0  0  0  0  0
   12.3735   -9.3681   23.1621 C   0  0  0  0  0  0  0  0  0  0  0  0
   20.6499  -15.4468   24.5018 C   0  0  0  0  0  0  0  0  0  0  0  0
   13.3715   -9.2675   22.1733 C   0  0  0  0  0  0  0  0  0  0  0  0
   12.0950   -7.9251   24.3750 Br  0  0  0  0  0  0  0  0  0  0  0  0
   18.2315  -11.1253   21.7472 H   0  0  0  0  0  0  0  0  0  0  0  0
   16.8102  -14.2228   21.7728 H   0  0  0  0  0  0  0  0  0  0  0  0
   15.9096  -13.7038   23.5982 H   0  0  0  0  0  0  0  0  0  0  0  0
   18.7592  -12.2380   18.9895 H   0  0  0  0  0  0  0  0  0  0  0  0
   19.5328  -10.8616   19.8459 H   0  0  0  0  0  0  0  0  0  0  0  0
   16.5367   -9.9133   21.1895 H   0  0  0  0  0  0  0  0  0  0  0  0
   20.7532  -13.2994   19.5939 H   0  0  0  0  0  0  0  0  0  0  0  0
   20.9944  -12.2511   21.0325 H   0  0  0  0  0  0  0  0  0  0  0  0
   16.1180  -16.3036   24.0062 H   0  0  0  0  0  0  0  0  0  0  0  0
   17.4642  -14.4341   25.2041 H   0  0  0  0  0  0  0  0  0  0  0  0
   18.0675  -16.1215   25.0813 H   0  0  0  0  0  0  0  0  0  0  0  0
   14.7168   -9.1631   19.8915 H   0  0  0  0  0  0  0  0  0  0  0  0
   14.4066  -10.8557   19.3760 H   0  0  0  0  0  0  0  0  0  0  0  0
   20.1387  -14.0648   22.2028 H   0  0  0  0  0  0  0  0  0  0  0  0
   19.3626  -14.7606   20.7399 H   0  0  0  0  0  0  0  0  0  0  0  0
   18.9699  -12.6823   25.5785 H   0  0  0  0  0  0  0  0  0  0  0  0
   13.0921  -12.3769   20.7862 H   0  0  0  0  0  0  0  0  0  0  0  0
   21.2837  -11.8108   25.7482 H   0  0  0  0  0  0  0  0  0  0  0  0
   11.3096  -12.5500   22.5136 H   0  0  0  0  0  0  0  0  0  0  0  0
   23.2056  -13.2601   25.1171 H   0  0  0  0  0  0  0  0  0  0  0  0
   10.8309  -10.6212   24.0123 H   0  0  0  0  0  0  0  0  0  0  0  0
   22.8020  -15.5994   24.3730 H   0  0  0  0  0  0  0  0  0  0  0  0
   20.4766  -16.4587   24.1665 H   0  0  0  0  0  0  0  0  0  0  0  0
   13.9436   -8.3561   22.0812 H   0  0  0  0  0  0  0  0  0  0  0  0
  1  2  1  0  0  0  0
  1 14  1  0  0  0  0
  1  3  1  0  0  0  0
  2  5  1  0  0  0  0
  2  7  1  0  0  0  0
  3  8  1  0  0  0  0
  3  4  1  0  0  0  0
  5  6  2  0  0  0  0
  5  9  1  0  0  0  0
  7 10  1  0  0  0  0
  8 11  2  0  0  0  0
  8 12  1  0  0  0  0
  9 13  1  0  0  0  0
 10 14  1  0  0  0  0
 12 15  1  0  0  0  0
 13 16  1  0  0  0  0
 15 17  2  0  0  0  0
 15 25  1  0  0  0  0
 16 18  2  0  0  0  0
 16 26  1  0  0  0  0
 17 19  1  0  0  0  0
 18 20  1  0  0  0  0
 19 21  2  0  0  0  0
 20 22  2  0  0  0  0
 21 23  1  0  0  0  0
 22 24  1  0  0  0  0
 23 25  2  0  0  0  0
 24 26  2  0  0  0  0
 24 27  1  0  0  0  0
  2 28  1  0  0  0  0
  3 29  1  0  0  0  0
  4 30  1  0  0  0  0
  7 31  1  0  0  0  0
  7 32  1  0  0  0  0
  9 33  1  0  0  0  0
 10 34  1  0  0  0  0
 10 35  1  0  0  0  0
 11 36  1  0  0  0  0
 12 37  1  0  0  0  0
 12 38  1  0  0  0  0
 13 39  1  0  0  0  0
 13 40  1  0  0  0  0
 14 41  1  0  0  0  0
 14 42  1  0  0  0  0
 17 43  1  0  0  0  0
 18 44  1  0  0  0  0
 19 45  1  0  0  0  0
 20 46  1  0  0  0  0
 21 47  1  0  0  0  0
 22 48  1  0  0  0  0
 23 49  1  0  0  0  0
 25 50  1  0  0  0  0
 26 51  1  0  0  0  0
M  END
> <r_user_dG.exp>
-8.56

$$$$
1c
  -OEChem-05192314073D
 Structure written by MMmdl.
 51 53  0     1  0  0  0  0  0999 V2000
   18.2567  -13.2370   21.7047 N   0  0  0  0  0  0  0  0  0  0  0  0
   18.0563  -11.9400   21.0292 C   0  0  2  0  0  0  0  0  0  0  0  0
   17.3896  -13.7779   22.5952 C   0  0  0  0  0  0  0  0  0  0  0  0
   16.3917  -13.1666   22.9805 O   0  0  0  0  0  0  0  0  0  0  0  0
   16.6512  -11.7486   20.4074 C   0  0  0  0  0  0  0  0  0  0  0  0
   16.1521  -12.6411   19.7201 O   0  0  0  0  0  0  0  0  0  0  0  0
   19.1524  -11.8879   19.9553 C   0  0  0  0  0  0  0  0  0  0  0  0
   17.6454  -15.1784   23.1855 C   0  0  2  0  0  0  0  0  0  0  0  0
   16.0303  -10.5893   20.6541 N   0  0  0  0  0  0  0  0  0  0  0  0
   20.2529  -12.8095   20.4423 C   0  0  0  0  0  0  0  0  0  0  0  0
   16.4042  -15.9674   23.1089 N   0  0  0  0  0  0  0  0  0  0  0  0
   18.1324  -15.1110   24.6516 C   0  0  0  0  0  0  0  0  0  0  0  0
   14.6909  -10.2121   20.2216 C   0  0  0  0  0  0  0  0  0  0  0  0
   19.5366  -13.8367   21.3109 C   0  0  0  0  0  0  0  0  0  0  0  0
   19.5574  -14.6140   24.8234 C   0  0  0  0  0  0  0  0  0  0  0  0
   13.6305  -10.3468   21.3020 C   0  0  0  0  0  0  0  0  0  0  0  0
   19.8009  -13.3110   25.2946 C   0  0  0  0  0  0  0  0  0  0  0  0
   12.8881  -11.5388   21.4361 C   0  0  0  0  0  0  0  0  0  0  0  0
   21.1106  -12.8184   25.4002 C   0  0  0  0  0  0  0  0  0  0  0  0
   11.8799  -11.6379   22.4174 C   0  0  0  0  0  0  0  0  0  0  0  0
   22.1968  -13.6402   25.0518 C   0  0  0  0  0  0  0  0  0  0  0  0
   11.6148  -10.5494   23.2729 C   0  0  0  0  0  0  0  0  0  0  0  0
   21.9671  -14.9595   24.6177 C   0  0  0  0  0  0  0  0  0  0  0  0
   12.3735   -9.3681   23.1621 C   0  0  0  0  0  0  0  0  0  0  0  0
   20.6499  -15.4468   24.5018 C   0  0  0  0  0  0  0  0  0  0  0  0
   13.3715   -9.2675   22.1733 C   0  0  0  0  0  0  0  0  0  0  0  0
   12.0950   -7.9251   24.3750 Br  0  0  0  0  0  0  0  0  0  0  0  0
   18.2315  -11.1253   21.7472 H   0  0  0  0  0  0  0  0  0  0  0  0
   16.8102  -14.2228   21.7728 H   0  0  0  0  0  0  0  0  0  0  0  0
   15.9096  -13.7038   23.5982 H   0  0  0  0  0  0  0  0  0  0  0  0
   15.2946  -12.3662   19.4174 H   0  0  0  0  0  0  0  0  0  0  0  0
   18.7592  -12.2380   18.9895 H   0  0  0  0  0  0  0  0  0  0  0  0
   19.5328  -10.8616   19.8459 H   0  0  0  0  0  0  0  0  0  0  0  0
   20.7532  -13.2994   19.5939 H   0  0  0  0  0  0  0  0  0  0  0  0
   20.9944  -12.2511   21.0325 H   0  0  0  0  0  0  0  0  0  0  0  0
   16.1180  -16.3036   24.0062 H   0  0  0  0  0  0  0  0  0  0  0  0
   17.4642  -14.4341   25.2041 H   0  0  0  0  0  0  0  0  0  0  0  0
   18.0675  -16.1215   25.0813 H   0  0  0  0  0  0  0  0  0  0  0  0
   14.7168   -9.1631   19.8915 H   0  0  0  0  0  0  0  0  0  0  0  0
   14.4066  -10.8557   19.3760 H   0  0  0  0  0  0  0  0  0  0  0  0
   20.1387  -14.0648   22.2028 H   0  0  0  0  0  0  0  0  0  0  0  0
   19.3626  -14.7606   20.7399 H   0  0  0  0  0  0  0  0  0  0  0  0
   18.9699  -12.6823   25.5785 H   0  0  0  0  0  0  0  0  0  0  0  0
   13.0921  -12.3769   20.7862 H   0  0  0  0  0  0  0  0  0  0  0  0
   21.2837  -11.8108   25.7482 H   0  0  0  0  0  0  0  0  0  0  0  0
   11.3096  -12.5500   22.5136 H   0  0  0  0  0  0  0  0  0  0  0  0
   23.2056  -13.2601   25.1171 H   0  0  0  0  0  0  0  0  0  0  0  0
   10.8309  -10.6212   24.0123 H   0  0  0  0  0  0  0  0  0  0  0  0
   22.8020  -15.5994   24.3730 H   0  0  0  0  0  0  0  0  0  0  0  0
   20.4766  -16.4587   24.1665 H   0  0  0  0  0  0  0  0  0  0  0  0
   13.9436   -8.3561   22.0812 H   0  0  0  0  0  0  0  0  0  0  0  0
  1  2  1  0  0  0  0
  1 14  1  0  0  0  0
  1  3  1  0  0  0  0
  2  5  1  0  0  0  0
  2  7  1  0  0  0  0
  3  8  1  0  0  0  0
  3  4  1  0  0  0  0
  5  6  1  0  0  0  0
  5  9  2  0  0  0  0
  7 10  1  0  0  0  0
  8 11  2  0  0  0  0
  8 12  1  0  0  0  0
  9 13  1  0  0  0  0
 10 14  1  0  0  0  0
 12 15  1  0  0  0  0
 13 16  1  0  0  0  0
 15 17  2  0  0  0  0
 15 25  1  0  0  0  0
 16 18  2  0  0  0  0
 16 26  1  0  0  0  0
 17 19  1  0  0  0  0
 18 20  1  0  0  0  0
 19 21  2  0  0  0  0
 20 22  2  0  0  0  0
 21 23  1  0  0  0  0
 22 24  1  0  0  0  0
 23 25  2  0  0  0  0
 24 26  2  0  0  0  0
 24 27  1  0  0  0  0
  2 28  1  0  0  0  0
  3 29  1  0  0  0  0
  4 30  1  0  0  0  0
  6 31  1  0  0  0  0
  7 32  1  0  0  0  0
  7 33  1  0  0  0  0
 10 34  1  0  0  0  0
 10 35  1  0  0  0  0
 11 36  1  0  0  0  0
 12 37  1  0  0  0  0
 12 38  1  0  0  0  0
 13 39  1  0  0  0  0
 13 40  1  0  0  0  0
 14 41  1  0  0  0  0
 14 42  1  0  0  0  0
 17 43  1  0  0  0  0
 18 44  1  0  0  0  0
 19 45  1  0  0  0  0
 20 46  1  0  0  0  0
 21 47  1  0  0  0  0
 22 48  1  0  0  0  0
 23 49  1  0  0  0  0
 25 50  1  0  0  0  0
 26 51  1  0  0  0  0
M  END
> <r_user_dG.exp>
-8.56

$$$$
1c
  -OEChem-05192314073D
 Structure written by MMmdl.
 51 53  0     1  0  0  0  0  0999 V2000
   18.2567  -13.2370   21.7047 N   0  0  0  0  0  0  0  0  0  0  0  0
   18.0563  -11.9400   21.0292 C   0  0  2  0  0  0  0  0  0  0  0  0
   17.3896  -13.7779   22.5952 C   0  0  0  0  0  0  0  0  0  0  0  0
   16.3917  -13.1666   22.9805 O   0  0  0  0  0  0  0  0  0  0  0  0
   16.6512  -11.7486   20.4074 C   0  0  0  0  0  0  0  0  0  0  0  0
   16.1521  -12.6411   19.7201 O   0  0  0  0  0  0  0  0  0  0  0  0
   19.1524  -11.8879   19.9553 C   0  0  0  0  0  0  0  0  0  0  0  0
   17.6454  -15.1784   23.1855 C   0  0  2  0  0  0  0  0  0  0  0  0
   16.0303  -10.5893   20.6541 N   0  0  0  0  0  0  0  0  0  0  0  0
   20.2529  -12.8095   20.4423 C   0  0  0  0  0  0  0  0  0  0  0  0
   16.4042  -15.9674   23.1089 N   0  0  0  0  0  0  0  0  0  0  0  0
   18.1324  -15.1110   24.6516 C   0  0  0  0  0  0  0  0  0  0  0  0
   14.6909  -10.2121   20.2216 C   0  0  0  0  0  0  0  0  0  0  0  0
   19.5366  -13.8367   21.3109 C   0  0  0  0  0  0  0  0  0  0  0  0
   19.5574  -14.6140   24.8234 C   0  0  0  0  0  0  0  0  0  0  0  0
   13.6305  -10.3468   21.3020 C   0  0  0  0  0  0  0  0  0  0  0  0
   19.8009  -13.3110   25.2946 C   0  0  0  0  0  0  0  0  0  0  0  0
   12.8881  -11.5388   21.4361 C   0  0  0  0  0  0  0  0  0  0  0  0
   21.1106  -12.8184   25.4002 C   0  0  0  0  0  0  0  0  0  0  0  0
   11.8799  -11.6379   22.4174 C   0  0  0  0  0  0  0  0  0  0  0  0
   22.1968  -13.6402   25.0518 C   0  0  0  0  0  0  0  0  0  0  0  0
   11.6148  -10.5494   23.2729 C   0  0  0  0  0  0  0  0  0  0  0  0
   21.9671  -14.9595   24.6177 C   0  0  0  0  0  0  0  0  0  0  0  0
   12.3735   -9.3681   23.1621 C   0  0  0  0  0  0  0  0  0  0  0  0
   20.6499  -15.4468   24.5018 C   0  0  0  0  0  0  0  0  0  0  0  0
   13.3715   -9.2675   22.1733 C   0  0  0  0  0  0  0  0  0  0  0  0
   12.0950   -7.9251   24.3750 Br  0  0  0  0  0  0  0  0  0  0  0  0
   18.2315  -11.1253   21.7472 H   0  0  0  0  0  0  0  0  0  0  0  0
   15.9096  -13.7038   23.5982 H   0  0  0  0  0  0  0  0  0  0  0  0
   18.7592  -12.2380   18.9895 H   0  0  0  0  0  0  0  0  0  0  0  0
   19.5328  -10.8616   19.8459 H   0  0  0  0  0  0  0  0  0  0  0  0
   16.5367   -9.9133   21.1895 H   0  0  0  0  0  0  0  0  0  0  0  0
   20.7532  -13.2994   19.5939 H   0  0  0  0  0  0  0  0  0  0  0  0
   20.9944  -12.2511   21.0325 H   0  0  0  0  0  0  0  0  0  0  0  0
   16.5634  -16.8779   23.4906 H   0  0  0  0  0  0  0  0  0  0  0  0
   15.6849  -15.5085   23.6305 H   0  0  0  0  0  0  0  0  0  0  0  0
   17.4642  -14.4341   25.2041 H   0  0  0  0  0  0  0  0  0  0  0  0
   18.0675  -16.1215   25.0813 H   0  0  0  0  0  0  0  0  0  0  0  0
   14.7168   -9.1631   19.8915 H   0  0  0  0  0  0  0  0  0  0  0  0
   14.4066  -10.8557   19.3760 H   0  0  0  0  0  0  0  0  0  0  0  0
   20.1387  -14.0648   22.2028 H   0  0  0  0  0  0  0  0  0  0  0  0
   19.3626  -14.7606   20.7399 H   0  0  0  0  0  0  0  0  0  0  0  0
   18.9699  -12.6823   25.5785 H   0  0  0  0  0  0  0  0  0  0  0  0
   13.0921  -12.3769   20.7862 H   0  0  0  0  0  0  0  0  0  0  0  0
   21.2837  -11.8108   25.7482 H   0  0  0  0  0  0  0  0  0  0  0  0
   11.3096  -12.5500   22.5136 H   0  0  0  0  0  0  0  0  0  0  0  0
   23.2056  -13.2601   25.1171 H   0  0  0  0  0  0  0  0  0  0  0  0
   10.8309  -10.6212   24.0123 H   0  0  0  0  0  0  0  0  0  0  0  0
   22.8020  -15.5994   24.3730 H   0  0  0  0  0  0  0  0  0  0  0  0
   20.4766  -16.4587   24.1665 H   0  0  0  0  0  0  0  0  0  0  0  0
   13.9436   -8.3561   22.0812 H   0  0  0  0  0  0  0  0  0  0  0  0
  1  2  1  0  0  0  0
  1 14  1  0  0  0  0
  1  3  1  0  0  0  0
  2  5  1  0  0  0  0
  2  7  1  0  0  0  0
  3  8  2  0  0  0  0
  3  4  1  0  0  0  0
  5  6  2  0  0  0  0
  5  9  1  0  0  0  0
  7 10  1  0  0  0  0
  8 11  1  0  0  0  0
  8 12  1  0  0  0  0
  9 13  1  0  0  0  0
 10 14  1  0  0  0  0
 12 15  1  0  0  0  0
 13 16  1  0  0  0  0
 15 17  2  0  0  0  0
 15 25  1  0  0  0  0
 16 18  2  0  0  0  0
 16 26  1  0  0  0  0
 17 19  1  0  0  0  0
 18 20  1  0  0  0  0
 19 21  2  0  0  0  0
 20 22  2  0  0  0  0
 21 23  1  0  0  0  0
 22 24  1  0  0  0  0
 23 25  2  0  0  0  0
 24 26  2  0  0  0  0
 24 27  1  0  0  0  0
  2 28  1  0  0  0  0
  4 29  1  0  0  0  0
  7 30  1  0  0  0  0
  7 31  1  0  0  0  0
  9 32  1  0  0  0  0
 10 33  1  0  0  0  0
 10 34  1  0  0  0  0
 11 35  1  0  0  0  0
 11 36  1  0  0  0  0
 12 37  1  0  0  0  0
 12 38  1  0  0  0  0
 13 39  1  0  0  0  0
 13 40  1  0  0  0  0
 14 41  1  0  0  0  0
 14 42  1  0  0  0  0
 17 43  1  0  0  0  0
 18 44  1  0  0  0  0
 19 45  1  0  0  0  0
 20 46  1  0  0  0  0
 21 47  1  0  0  0  0
 22 48  1  0  0  0  0
 23 49  1  0  0  0  0
 25 50  1  0  0  0  0
 26 51  1  0  0  0  0
M  END
> <r_user_dG.exp>
-8.56

$$$$
1c
  -OEChem-05192314073D
 Structure written by MMmdl.
 51 53  0     1  0  0  0  0  0999 V2000
   18.2567  -13.2370   21.7047 N   0  0  0  0  0  0  0  0  0  0  0  0
   18.0563  -11.9400   21.0292 C   0  0  2  0  0  0  0  0  0  0  0  0
   17.3896  -13.7779   22.5952 C   0  0  0  0  0  0  0  0  0  0  0  0
   16.3917  -13.1666   22.9805 O   0  0  0  0  0  0  0  0  0  0  0  0
   16.6512  -11.7486   20.4074 C   0  0  0  0  0  0  0  0  0  0  0  0
   16.1521  -12.6411   19.7201 O   0  0  0  0  0  0  0  0  0  0  0  0
   19.1524  -11.8879   19.9553 C   0  0  0  0  0  0  0  0  0  0  0  0
   17.6454  -15.1784   23.1855 C   0  0  2  0  0  0  0  0  0  0  0  0
   16.0303  -10.5893   20.6541 N   0  0  0  0  0  0  0  0  0  0  0  0
   20.2529  -12.8095   20.4423 C   0  0  0  0  0  0  0  0  0  0  0  0
   16.4042  -15.9674   23.1089 N   0  0  0  0  0  0  0  0  0  0  0  0
   18.1324  -15.1110   24.6516 C   0  0  0  0  0  0  0  0  0  0  0  0
   14.6909  -10.2121   20.2216 C   0  0  0  0  0  0  0  0  0  0  0  0
   19.5366  -13.8367   21.3109 C   0  0  0  0  0  0  0  0  0  0  0  0
   19.5574  -14.6140   24.8234 C   0  0  0  0  0  0  0  0  0  0  0  0
   13.6305  -10.3468   21.3020 C   0  0  0  0  0  0  0  0  0  0  0  0
   19.8009  -13.3110   25.2946 C   0  0  0  0  0  0  0  0  0  0  0  0
   12.8881  -11.5388   21.4361 C   0  0  0  0  0  0  0  0  0  0  0  0
   21.1106  -12.8184   25.4002 C   0  0  0  0  0  0  0  0  0  0  0  0
   11.8799  -11.6379   22.4174 C   0  0  0  0  0  0  0  0  0  0  0  0
   22.1968  -13.6402   25.0518 C   0  0  0  0  0  0  0  0  0  0  0  0
   11.6148  -10.5494   23.2729 C   0  0  0  0  0  0  0  0  0  0  0  0
   21.9671  -14.9595   24.6177 C   0  0  0  0  0  0  0  0  0  0  0  0
   12.3735   -9.3681   23.1621 C   0  0  0  0  0  0  0  0  0  0  0  0
   20.6499  -15.4468   24.5018 C   0  0  0  0  0  0  0  0  0  0  0  0
   13.3715   -9.2675   22.1733 C   0  0  0  0  0  0  0  0  0  0  0  0
   12.0950   -7.9251   24.3750 Br  0  0  0  0  0  0  0  0  0  0  0  0
   18.2315  -11.1253   21.7472 H   0  0  0  0  0  0  0  0  0  0  0  0
   15.9096  -13.7038   23.5982 H   0  0  0  0  0  0  0  0  0  0  0  0
   15.2946  -12.3662   19.4174 H   0  0  0  0  0  0  0  0  0  0  0  0
   18.7592  -12.2380   18.9895 H   0  0  0  0  0  0  0  0  0  0  0  0
   19.5328  -10.8616   19.8459 H   0  0  0  0  0  0  0  0  0  0  0  0
   20.7532  -13.2994   19.5939 H   0  0  0  0  0  0  0  0  0  0  0  0
   20.9944  -12.2511   21.0325 H   0  0  0  0  0  0  0  0  0  0  0  0
   16.5634  -16.8779   23.4906 H   0  0  0  0  0  0  0  0  0  0  0  0
   15.6849  -15.5085   23.6305 H   0  0  0  0  0  0  0  0  0  0  0  0
   17.4642  -14.4341   25.2041 H   0  0  0  0  0  0  0  0  0  0  0  0
   18.0675  -16.1215   25.0813 H   0  0  0  0  0  0  0  0  0  0  0  0
   14.7168   -9.1631   19.8915 H   0  0  0  0  0  0  0  0  0  0  0  0
   14.4066  -10.8557   19.3760 H   0  0  0  0  0  0  0  0  0  0  0  0
   20.1387  -14.0648   22.2028 H   0  0  0  0  0  0  0  0  0  0  0  0
   19.3626  -14.7606   20.7399 H   0  0  0  0  0  0  0  0  0  0  0  0
   18.9699  -12.6823   25.5785 H   0  0  0  0  0  0  0  0  0  0  0  0
   13.0921  -12.3769   20.7862 H   0  0  0  0  0  0  0  0  0  0  0  0
   21.2837  -11.8108   25.7482 H   0  0  0  0  0  0  0  0  0  0  0  0
   11.3096  -12.5500   22.5136 H   0  0  0  0  0  0  0  0  0  0  0  0
   23.2056  -13.2601   25.1171 H   0  0  0  0  0  0  0  0  0  0  0  0
   10.8309  -10.6212   24.0123 H   0  0  0  0  0  0  0  0  0  0  0  0
   22.8020  -15.5994   24.3730 H   0  0  0  0  0  0  0  0  0  0  0  0
   20.4766  -16.4587   24.1665 H   0  0  0  0  0  0  0  0  0  0  0  0
   13.9436   -8.3561   22.0812 H   0  0  0  0  0  0  0  0  0  0  0  0
  1  2  1  0  0  0  0
  1 14  1  0  0  0  0
  1  3  1  0  0  0  0
  2  5  1  0  0  0  0
  2  7  1  0  0  0  0
  3  8  2  0  0  0  0
  3  4  1  0  0  0  0
  5  6  1  0  0  0  0
  5  9  2  0  0  0  0
  7 10  1  0  0  0  0
  8 11  1  0  0  0  0
  8 12  1  0  0  0  0
  9 13  1  0  0  0  0
 10 14  1  0  0  0  0
 12 15  1  0  0  0  0
 13 16  1  0  0  0  0
 15 17  2  0  0  0  0
 15 25  1  0  0  0  0
 16 18  2  0  0  0  0
 16 26  1  0  0  0  0
 17 19  1  0  0  0  0
 18 20  1  0  0  0  0
 19 21  2  0  0  0  0
 20 22  2  0  0  0  0
 21 23  1  0  0  0  0
 22 24  1  0  0  0  0
 23 25  2  0  0  0  0
 24 26  2  0  0  0  0
 24 27  1  0  0  0  0
  2 28  1  0  0  0  0
  4 29  1  0  0  0  0
  6 30  1  0  0  0  0
  7 31  1  0  0  0  0
  7 32  1  0  0  0  0
 10 33  1  0  0  0  0
 10 34  1  0  0  0  0
 11 35  1  0  0  0  0
 11 36  1  0  0  0  0
 12 37  1  0  0  0  0
 12 38  1  0  0  0  0
 13 39  1  0  0  0  0
 13 40  1  0  0  0  0
 14 41  1  0  0  0  0
 14 42  1  0  0  0  0
 17 43  1  0  0  0  0
 18 44  1  0  0  0  0
 19 45  1  0  0  0  0
 20 46  1  0  0  0  0
 21 47  1  0  0  0  0
 22 48  1  0  0  0  0
 23 49  1  0  0  0  0
 25 50  1  0  0  0  0
 26 51  1  0  0  0  0
M  END
> <r_user_dG.exp>
-8.56

$$$$
