6b
  -OEChem-05192314073D
 Structure written by MMmdl.
 54 56  0     1  0  0  0  0  0999 V2000
   18.2326  -13.2133   21.6902 N   0  0  0  0  0  0  0  0  0  0  0  0
   18.0295  -11.9153   21.0170 C   0  0  2  0  0  0  0  0  0  0  0  0
   17.3649  -13.7582   22.5771 C   0  0  0  0  0  0  0  0  0  0  0  0
   16.3644  -13.1506   22.9608 O   0  0  0  0  0  0  0  0  0  0  0  0
   16.6275  -11.7387   20.3833 C   0  0  0  0  0  0  0  0  0  0  0  0
   16.1735  -12.6139   19.6444 O   0  0  0  0  0  0  0  0  0  0  0  0
   19.1347  -11.8556   19.9527 C   0  0  0  0  0  0  0  0  0  0  0  0
   17.6230  -15.1593   23.1645 C   0  0  2  0  0  0  0  0  0  0  0  0
   15.9572  -10.6181   20.6810 N   0  0  0  0  0  0  0  0  0  0  0  0
   20.2327  -12.7823   20.4359 C   0  0  0  0  0  0  0  0  0  0  0  0
   16.3841  -15.9514   23.0833 N   0  0  0  0  0  0  0  0  0  0  0  0
   18.1081  -15.0943   24.6316 C   0  0  0  0  0  0  0  0  0  0  0  0
   14.6005  -10.2793   20.2619 C   0  0  0  0  0  0  0  0  0  0  0  0
   19.5144  -13.8108   21.3000 C   0  0  0  0  0  0  0  0  0  0  0  0
   19.5371  -14.6090   24.8070 C   0  0  0  0  0  0  0  0  0  0  0  0
   13.5525  -10.3776   21.3703 C   0  0  0  0  0  0  0  0  0  0  0  0
   19.7917  -13.3123   25.2901 C   0  0  0  0  0  0  0  0  0  0  0  0
   12.7721  -11.5442   21.5857 C   0  0  0  0  0  0  0  0  0  0  0  0
   21.1054  -12.8312   25.4007 C   0  0  0  0  0  0  0  0  0  0  0  0
   11.7792  -11.5483   22.5905 C   0  0  0  0  0  0  0  0  0  0  0  0
   22.1850  -13.6592   25.0464 C   0  0  0  0  0  0  0  0  0  0  0  0
   11.5701  -10.4151   23.3971 C   0  0  0  0  0  0  0  0  0  0  0  0
   21.9443  -14.9725   24.6001 C   0  0  0  0  0  0  0  0  0  0  0  0
   12.3694   -9.2730   23.2182 C   0  0  0  0  0  0  0  0  0  0  0  0
   20.6231  -15.4476   24.4787 C   0  0  0  0  0  0  0  0  0  0  0  0
   13.3447   -9.2541   22.2017 C   0  0  0  0  0  0  0  0  0  0  0  0
   12.1866   -7.9177   24.2734 Cl  0  0  0  0  0  0  0  0  0  0  0  0
   12.9870  -12.8115   20.7791 C   0  0  0  0  0  0  0  0  0  0  0  0
   18.1913  -11.1003   21.7378 H   0  0  0  0  0  0  0  0  0  0  0  0
   18.7478  -12.1960   18.9808 H   0  0  0  0  0  0  0  0  0  0  0  0
   19.5167  -10.8286   19.8560 H   0  0  0  0  0  0  0  0  0  0  0  0
   18.4048  -15.6475   22.5642 H   0  0  0  0  0  0  0  0  0  0  0  0
   16.4340   -9.9459   21.2473 H   0  0  0  0  0  0  0  0  0  0  0  0
   20.7316  -13.2700   19.5854 H   0  0  0  0  0  0  0  0  0  0  0  0
   20.9758  -12.2283   21.0283 H   0  0  0  0  0  0  0  0  0  0  0  0
   16.5448  -16.8624   23.4631 H   0  0  0  0  0  0  0  0  0  0  0  0
   15.6625  -15.4957   23.6044 H   0  0  0  0  0  0  0  0  0  0  0  0
   17.4443  -14.4113   25.1820 H   0  0  0  0  0  0  0  0  0  0  0  0
   18.0339  -16.1039   25.0620 H   0  0  0  0  0  0  0  0  0  0  0  0
   14.6053   -9.2462   19.8840 H   0  0  0  0  0  0  0  0  0  0  0  0
   14.3097  -10.9646   19.4521 H   0  0  0  0  0  0  0  0  0  0  0  0
   20.1135  -14.0396   22.1937 H   0  0  0  0  0  0  0  0  0  0  0  0
   19.3433  -14.7340   20.7270 H   0  0  0  0  0  0  0  0  0  0  0  0
   18.9659  -12.6793   25.5794 H   0  0  0  0  0  0  0  0  0  0  0  0
   21.2865  -11.8279   25.7569 H   0  0  0  0  0  0  0  0  0  0  0  0
   11.1745  -12.4304   22.7409 H   0  0  0  0  0  0  0  0  0  0  0  0
   23.1970  -13.2885   25.1165 H   0  0  0  0  0  0  0  0  0  0  0  0
   10.7975  -10.4226   24.1517 H   0  0  0  0  0  0  0  0  0  0  0  0
   22.7739  -15.6173   24.3502 H   0  0  0  0  0  0  0  0  0  0  0  0
   20.4417  -16.4549   24.1339 H   0  0  0  0  0  0  0  0  0  0  0  0
   13.9430   -8.3669   22.0556 H   0  0  0  0  0  0  0  0  0  0  0  0
   13.7343  -13.4438   21.2808 H   0  0  0  0  0  0  0  0  0  0  0  0
   12.0371  -13.3603   20.6987 H   0  0  0  0  0  0  0  0  0  0  0  0
   13.3452  -12.5491   19.7727 H   0  0  0  0  0  0  0  0  0  0  0  0
  1  2  1  0  0  0  0
  1 14  1  0  0  0  0
  1  3  1  0  0  0  0
  2  5  1  0  0  0  0
  2  7  1  0  0  0  0
  3  8  1  0  0  0  0
  3  4  2  0  0  0  0
  5  6  2  0  0  0  0
  5  9  1  0  0  0  0
  7 10  1  0  0  0  0
  8 11  1  0  0  0  0
  8 12  1  0  0  0  0
  9 13  1  0  0  0  0
 10 14  1  0  0  0  0
 12 15  1  0  0  0  0
 13 16  1  0  0  0  0
 15 17  2  0  0  0  0
 15 25  1  0  0  0  0
 16 18  2  0  0  0  0
 16 26  1  0  0  0  0
 17 19  1  0  0  0  0
 18 20  1  0  0  0  0
 18 28  1  0  0  0  0
 19 21  2  0  0  0  0
 20 22  2  0  0  0  0
 21 23  1  0  0  0  0
 22 24  1  0  0  0  0
 23 25  2  0  0  0  0
 24 26  2  0  0  0  0
 24 27  1  0  0  0  0
  2 29  1  0  0  0  0
  7 30  1  0  0  0  0
  7 31  1  0  0  0  0
  8 32  1  0  0  0  0
  9 33  1  0  0  0  0
 10 34  1  0  0  0  0
 10 35  1  0  0  0  0
 11 36  1  0  0  0  0
 11 37  1  0  0  0  0
 12 38  1  0  0  0  0
 12 39  1  0  0  0  0
 13 40  1  0  0  0  0
 13 41  1  0  0  0  0
 14 42  1  0  0  0  0
 14 43  1  0  0  0  0
 17 44  1  0  0  0  0
 19 45  1  0  0  0  0
 20 46  1  0  0  0  0
 21 47  1  0  0  0  0
 22 48  1  0  0  0  0
 23 49  1  0  0  0  0
 25 50  1  0  0  0  0
 26 51  1  0  0  0  0
 28 52  1  0  0  0  0
 28 53  1  0  0  0  0
 28 54  1  0  0  0  0
M  END
> <r_user_dG.exp>
-8.89

$$$$
6b
  -OEChem-05192314073D
 Structure written by MMmdl.
 54 56  0     1  0  0  0  0  0999 V2000
   18.2326  -13.2133   21.6902 N   0  0  0  0  0  0  0  0  0  0  0  0
   18.0295  -11.9153   21.0170 C   0  0  2  0  0  0  0  0  0  0  0  0
   17.3649  -13.7582   22.5771 C   0  0  0  0  0  0  0  0  0  0  0  0
   16.3644  -13.1506   22.9608 O   0  0  0  0  0  0  0  0  0  0  0  0
   16.6275  -11.7387   20.3833 C   0  0  0  0  0  0  0  0  0  0  0  0
   16.1735  -12.6139   19.6444 O   0  0  0  0  0  0  0  0  0  0  0  0
   19.1347  -11.8556   19.9527 C   0  0  0  0  0  0  0  0  0  0  0  0
   17.6230  -15.1593   23.1645 C   0  0  2  0  0  0  0  0  0  0  0  0
   15.9572  -10.6181   20.6810 N   0  0  0  0  0  0  0  0  0  0  0  0
   20.2327  -12.7823   20.4359 C   0  0  0  0  0  0  0  0  0  0  0  0
   16.3841  -15.9514   23.0833 N   0  0  0  0  0  0  0  0  0  0  0  0
   18.1081  -15.0943   24.6316 C   0  0  0  0  0  0  0  0  0  0  0  0
   14.6005  -10.2793   20.2619 C   0  0  0  0  0  0  0  0  0  0  0  0
   19.5144  -13.8108   21.3000 C   0  0  0  0  0  0  0  0  0  0  0  0
   19.5371  -14.6090   24.8070 C   0  0  0  0  0  0  0  0  0  0  0  0
   13.5525  -10.3776   21.3703 C   0  0  0  0  0  0  0  0  0  0  0  0
   19.7917  -13.3123   25.2901 C   0  0  0  0  0  0  0  0  0  0  0  0
   12.7721  -11.5442   21.5857 C   0  0  0  0  0  0  0  0  0  0  0  0
   21.1054  -12.8312   25.4007 C   0  0  0  0  0  0  0  0  0  0  0  0
   11.7792  -11.5483   22.5905 C   0  0  0  0  0  0  0  0  0  0  0  0
   22.1850  -13.6592   25.0464 C   0  0  0  0  0  0  0  0  0  0  0  0
   11.5701  -10.4151   23.3971 C   0  0  0  0  0  0  0  0  0  0  0  0
   21.9443  -14.9725   24.6001 C   0  0  0  0  0  0  0  0  0  0  0  0
   12.3694   -9.2730   23.2182 C   0  0  0  0  0  0  0  0  0  0  0  0
   20.6231  -15.4476   24.4787 C   0  0  0  0  0  0  0  0  0  0  0  0
   13.3447   -9.2541   22.2017 C   0  0  0  0  0  0  0  0  0  0  0  0
   12.1866   -7.9177   24.2734 Cl  0  0  0  0  0  0  0  0  0  0  0  0
   12.9870  -12.8115   20.7791 C   0  0  0  0  0  0  0  0  0  0  0  0
   18.1913  -11.1003   21.7378 H   0  0  0  0  0  0  0  0  0  0  0  0
   15.3113  -12.3561   19.3401 H   0  0  0  0  0  0  0  0  0  0  0  0
   18.7478  -12.1960   18.9808 H   0  0  0  0  0  0  0  0  0  0  0  0
   19.5167  -10.8286   19.8560 H   0  0  0  0  0  0  0  0  0  0  0  0
   18.4048  -15.6475   22.5642 H   0  0  0  0  0  0  0  0  0  0  0  0
   20.7316  -13.2700   19.5854 H   0  0  0  0  0  0  0  0  0  0  0  0
   20.9758  -12.2283   21.0283 H   0  0  0  0  0  0  0  0  0  0  0  0
   16.5448  -16.8624   23.4631 H   0  0  0  0  0  0  0  0  0  0  0  0
   15.6625  -15.4957   23.6044 H   0  0  0  0  0  0  0  0  0  0  0  0
   17.4443  -14.4113   25.1820 H   0  0  0  0  0  0  0  0  0  0  0  0
   18.0339  -16.1039   25.0620 H   0  0  0  0  0  0  0  0  0  0  0  0
   14.6053   -9.2462   19.8840 H   0  0  0  0  0  0  0  0  0  0  0  0
   14.3097  -10.9646   19.4521 H   0  0  0  0  0  0  0  0  0  0  0  0
   20.1135  -14.0396   22.1937 H   0  0  0  0  0  0  0  0  0  0  0  0
   19.3433  -14.7340   20.7270 H   0  0  0  0  0  0  0  0  0  0  0  0
   18.9659  -12.6793   25.5794 H   0  0  0  0  0  0  0  0  0  0  0  0
   21.2865  -11.8279   25.7569 H   0  0  0  0  0  0  0  0  0  0  0  0
   11.1745  -12.4304   22.7409 H   0  0  0  0  0  0  0  0  0  0  0  0
   23.1970  -13.2885   25.1165 H   0  0  0  0  0  0  0  0  0  0  0  0
   10.7975  -10.4226   24.1517 H   0  0  0  0  0  0  0  0  0  0  0  0
   22.7739  -15.6173   24.3502 H   0  0  0  0  0  0  0  0  0  0  0  0
   20.4417  -16.4549   24.1339 H   0  0  0  0  0  0  0  0  0  0  0  0
   13.9430   -8.3669   22.0556 H   0  0  0  0  0  0  0  0  0  0  0  0
   13.7343  -13.4438   21.2808 H   0  0  0  0  0  0  0  0  0  0  0  0
   12.0371  -13.3603   20.6987 H   0  0  0  0  0  0  0  0  0  0  0  0
   13.3452  -12.5491   19.7727 H   0  0  0  0  0  0  0  0  0  0  0  0
  1  2  1  0  0  0  0
  1 14  1  0  0  0  0
  1  3  1  0  0  0  0
  2  5  1  0  0  0  0
  2  7  1  0  0  0  0
  3  8  1  0  0  0  0
  3  4  2  0  0  0  0
  5  6  1  0  0  0  0
  5  9  2  0  0  0  0
  7 10  1  0  0  0  0
  8 11  1  0  0  0  0
  8 12  1  0  0  0  0
  9 13  1  0  0  0  0
 10 14  1  0  0  0  0
 12 15  1  0  0  0  0
 13 16  1  0  0  0  0
 15 17  2  0  0  0  0
 15 25  1  0  0  0  0
 16 18  2  0  0  0  0
 16 26  1  0  0  0  0
 17 19  1  0  0  0  0
 18 20  1  0  0  0  0
 18 28  1  0  0  0  0
 19 21  2  0  0  0  0
 20 22  2  0  0  0  0
 21 23  1  0  0  0  0
 22 24  1  0  0  0  0
 23 25  2  0  0  0  0
 24 26  2  0  0  0  0
 24 27  1  0  0  0  0
  2 29  1  0  0  0  0
  6 30  1  0  0  0  0
  7 31  1  0  0  0  0
  7 32  1  0  0  0  0
  8 33  1  0  0  0  0
 10 34  1  0  0  0  0
 10 35  1  0  0  0  0
 11 36  1  0  0  0  0
 11 37  1  0  0  0  0
 12 38  1  0  0  0  0
 12 39  1  0  0  0  0
 13 40  1  0  0  0  0
 13 41  1  0  0  0  0
 14 42  1  0  0  0  0
 14 43  1  0  0  0  0
 17 44  1  0  0  0  0
 19 45  1  0  0  0  0
 20 46  1  0  0  0  0
 21 47  1  0  0  0  0
 22 48  1  0  0  0  0
 23 49  1  0  0  0  0
 25 50  1  0  0  0  0
 26 51  1  0  0  0  0
 28 52  1  0  0  0  0
 28 53  1  0  0  0  0
 28 54  1  0  0  0  0
M  END
> <r_user_dG.exp>
-8.89

$$$$
6b
  -OEChem-05192314073D
 Structure written by MMmdl.
 54 56  0     1  0  0  0  0  0999 V2000
   18.2326  -13.2133   21.6902 N   0  0  0  0  0  0  0  0  0  0  0  0
   18.0295  -11.9153   21.0170 C   0  0  2  0  0  0  0  0  0  0  0  0
   17.3649  -13.7582   22.5771 C   0  0  0  0  0  0  0  0  0  0  0  0
   16.3644  -13.1506   22.9608 O   0  0  0  0  0  0  0  0  0  0  0  0
   16.6275  -11.7387   20.3833 C   0  0  0  0  0  0  0  0  0  0  0  0
   16.1735  -12.6139   19.6444 O   0  0  0  0  0  0  0  0  0  0  0  0
   19.1347  -11.8556   19.9527 C   0  0  0  0  0  0  0  0  0  0  0  0
   17.6230  -15.1593   23.1645 C   0  0  2  0  0  0  0  0  0  0  0  0
   15.9572  -10.6181   20.6810 N   0  0  0  0  0  0  0  0  0  0  0  0
   20.2327  -12.7823   20.4359 C   0  0  0  0  0  0  0  0  0  0  0  0
   16.3841  -15.9514   23.0833 N   0  0  0  0  0  0  0  0  0  0  0  0
   18.1081  -15.0943   24.6316 C   0  0  0  0  0  0  0  0  0  0  0  0
   14.6005  -10.2793   20.2619 C   0  0  0  0  0  0  0  0  0  0  0  0
   19.5144  -13.8108   21.3000 C   0  0  0  0  0  0  0  0  0  0  0  0
   19.5371  -14.6090   24.8070 C   0  0  0  0  0  0  0  0  0  0  0  0
   13.5525  -10.3776   21.3703 C   0  0  0  0  0  0  0  0  0  0  0  0
   19.7917  -13.3123   25.2901 C   0  0  0  0  0  0  0  0  0  0  0  0
   12.7721  -11.5442   21.5857 C   0  0  0  0  0  0  0  0  0  0  0  0
   21.1054  -12.8312   25.4007 C   0  0  0  0  0  0  0  0  0  0  0  0
   11.7792  -11.5483   22.5905 C   0  0  0  0  0  0  0  0  0  0  0  0
   22.1850  -13.6592   25.0464 C   0  0  0  0  0  0  0  0  0  0  0  0
   11.5701  -10.4151   23.3971 C   0  0  0  0  0  0  0  0  0  0  0  0
   21.9443  -14.9725   24.6001 C   0  0  0  0  0  0  0  0  0  0  0  0
   12.3694   -9.2730   23.2182 C   0  0  0  0  0  0  0  0  0  0  0  0
   20.6231  -15.4476   24.4787 C   0  0  0  0  0  0  0  0  0  0  0  0
   13.3447   -9.2541   22.2017 C   0  0  0  0  0  0  0  0  0  0  0  0
   12.1866   -7.9177   24.2734 Cl  0  0  0  0  0  0  0  0  0  0  0  0
   12.9870  -12.8115   20.7791 C   0  0  0  0  0  0  0  0  0  0  0  0
   18.1913  -11.1003   21.7378 H   0  0  0  0  0  0  0  0  0  0  0  0
   16.7889  -14.2028   21.7521 H   0  0  0  0  0  0  0  0  0  0  0  0
   15.8822  -13.6903   23.5762 H   0  0  0  0  0  0  0  0  0  0  0  0
   18.7478  -12.1960   18.9808 H   0  0  0  0  0  0  0  0  0  0  0  0
   19.5167  -10.8286   19.8560 H   0  0  0  0  0  0  0  0  0  0  0  0
   16.4340   -9.9459   21.2473 H   0  0  0  0  0  0  0  0  0  0  0  0
   20.7316  -13.2700   19.5854 H   0  0  0  0  0  0  0  0  0  0  0  0
   20.9758  -12.2283   21.0283 H   0  0  0  0  0  0  0  0  0  0  0  0
   16.0972  -16.2910   23.9790 H   0  0  0  0  0  0  0  0  0  0  0  0
   17.4443  -14.4113   25.1820 H   0  0  0  0  0  0  0  0  0  0  0  0
   18.0339  -16.1039   25.0620 H   0  0  0  0  0  0  0  0  0  0  0  0
   14.6053   -9.2462   19.8840 H   0  0  0  0  0  0  0  0  0  0  0  0
   14.3097  -10.9646   19.4521 H   0  0  0  0  0  0  0  0  0  0  0  0
   20.1135  -14.0396   22.1937 H   0  0  0  0  0  0  0  0  0  0  0  0
   19.3433  -14.7340   20.7270 H   0  0  0  0  0  0  0  0  0  0  0  0
   18.9659  -12.6793   25.5794 H   0  0  0  0  0  0  0  0  0  0  0  0
   21.2865  -11.8279   25.7569 H   0  0  0  0  0  0  0  0  0  0  0  0
   11.1745  -12.4304   22.7409 H   0  0  0  0  0  0  0  0  0  0  0  0
   23.1970  -13.2885   25.1165 H   0  0  0  0  0  0  0  0  0  0  0  0
   10.7975  -10.4226   24.1517 H   0  0  0  0  0  0  0  0  0  0  0  0
   22.7739  -15.6173   24.3502 H   0  0  0  0  0  0  0  0  0  0  0  0
   20.4417  -16.4549   24.1339 H   0  0  0  0  0  0  0  0  0  0  0  0
   13.9430   -8.3669   22.0556 H   0  0  0  0  0  0  0  0  0  0  0  0
   13.7343  -13.4438   21.2808 H   0  0  0  0  0  0  0  0  0  0  0  0
   12.0371  -13.3603   20.6987 H   0  0  0  0  0  0  0  0  0  0  0  0
   13.3452  -12.5491   19.7727 H   0  0  0  0  0  0  0  0  0  0  0  0
  1  2  1  0  0  0  0
  1 14  1  0  0  0  0
  1  3  1  0  0  0  0
  2  5  1  0  0  0  0
  2  7  1  0  0  0  0
  3  8  1  0  0  0  0
  3  4  1  0  0  0  0
  5  6  2  0  0  0  0
  5  9  1  0  0  0  0
  7 10  1  0  0  0  0
  8 11  2  0  0  0  0
  8 12  1  0  0  0  0
  9 13  1  0  0  0  0
 10 14  1  0  0  0  0
 12 15  1  0  0  0  0
 13 16  1  0  0  0  0
 15 17  2  0  0  0  0
 15 25  1  0  0  0  0
 16 18  2  0  0  0  0
 16 26  1  0  0  0  0
 17 19  1  0  0  0  0
 18 20  1  0  0  0  0
 18 28  1  0  0  0  0
 19 21  2  0  0  0  0
 20 22  2  0  0  0  0
 21 23  1  0  0  0  0
 22 24  1  0  0  0  0
 23 25  2  0  0  0  0
 24 26  2  0  0  0  0
 24 27  1  0  0  0  0
  2 29  1  0  0  0  0
  3 30  1  0  0  0  0
  4 31  1  0  0  0  0
  7 32  1  0  0  0  0
  7 33  1  0  0  0  0
  9 34  1  0  0  0  0
 10 35  1  0  0  0  0
 10 36  1  0  0  0  0
 11 37  1  0  0  0  0
 12 38  1  0  0  0  0
 12 39  1  0  0  0  0
 13 40  1  0  0  0  0
 13 41  1  0  0  0  0
 14 42  1  0  0  0  0
 14 43  1  0  0  0  0
 17 44  1  0  0  0  0
 19 45  1  0  0  0  0
 20 46  1  0  0  0  0
 21 47  1  0  0  0  0
 22 48  1  0  0  0  0
 23 49  1  0  0  0  0
 25 50  1  0  0  0  0
 26 51  1  0  0  0  0
 28 52  1  0  0  0  0
 28 53  1  0  0  0  0
 28 54  1  0  0  0  0
M  END
> <r_user_dG.exp>
-8.89

$$$$
6b
  -OEChem-05192314073D
 Structure written by MMmdl.
 54 56  0     1  0  0  0  0  0999 V2000
   18.2326  -13.2133   21.6902 N   0  0  0  0  0  0  0  0  0  0  0  0
   18.0295  -11.9153   21.0170 C   0  0  2  0  0  0  0  0  0  0  0  0
   17.3649  -13.7582   22.5771 C   0  0  0  0  0  0  0  0  0  0  0  0
   16.3644  -13.1506   22.9608 O   0  0  0  0  0  0  0  0  0  0  0  0
   16.6275  -11.7387   20.3833 C   0  0  0  0  0  0  0  0  0  0  0  0
   16.1735  -12.6139   19.6444 O   0  0  0  0  0  0  0  0  0  0  0  0
   19.1347  -11.8556   19.9527 C   0  0  0  0  0  0  0  0  0  0  0  0
   17.6230  -15.1593   23.1645 C   0  0  2  0  0  0  0  0  0  0  0  0
   15.9572  -10.6181   20.6810 N   0  0  0  0  0  0  0  0  0  0  0  0
   20.2327  -12.7823   20.4359 C   0  0  0  0  0  0  0  0  0  0  0  0
   16.3841  -15.9514   23.0833 N   0  0  0  0  0  0  0  0  0  0  0  0
   18.1081  -15.0943   24.6316 C   0  0  0  0  0  0  0  0  0  0  0  0
   14.6005  -10.2793   20.2619 C   0  0  0  0  0  0  0  0  0  0  0  0
   19.5144  -13.8108   21.3000 C   0  0  0  0  0  0  0  0  0  0  0  0
   19.5371  -14.6090   24.8070 C   0  0  0  0  0  0  0  0  0  0  0  0
   13.5525  -10.3776   21.3703 C   0  0  0  0  0  0  0  0  0  0  0  0
   19.7917  -13.3123   25.2901 C   0  0  0  0  0  0  0  0  0  0  0  0
   12.7721  -11.5442   21.5857 C   0  0  0  0  0  0  0  0  0  0  0  0
   21.1054  -12.8312   25.4007 C   0  0  0  0  0  0  0  0  0  0  0  0
   11.7792  -11.5483   22.5905 C   0  0  0  0  0  0  0  0  0  0  0  0
   22.1850  -13.6592   25.0464 C   0  0  0  0  0  0  0  0  0  0  0  0
   11.5701  -10.4151   23.3971 C   0  0  0  0  0  0  0  0  0  0  0  0
   21.9443  -14.9725   24.6001 C   0  0  0  0  0  0  0  0  0  0  0  0
   12.3694   -9.2730   23.2182 C   0  0  0  0  0  0  0  0  0  0  0  0
   20.6231  -15.4476   24.4787 C   0  0  0  0  0  0  0  0  0  0  0  0
   13.3447   -9.2541   22.2017 C   0  0  0  0  0  0  0  0  0  0  0  0
   12.1866   -7.9177   24.2734 Cl  0  0  0  0  0  0  0  0  0  0  0  0
   12.9870  -12.8115   20.7791 C   0  0  0  0  0  0  0  0  0  0  0  0
   18.1913  -11.1003   21.7378 H   0  0  0  0  0  0  0  0  0  0  0  0
   16.7889  -14.2028   21.7521 H   0  0  0  0  0  0  0  0  0  0  0  0
   15.8822  -13.6903   23.5762 H   0  0  0  0  0  0  0  0  0  0  0  0
   15.3113  -12.3561   19.3401 H   0  0  0  0  0  0  0  0  0  0  0  0
   18.7478  -12.1960   18.9808 H   0  0  0  0  0  0  0  0  0  0  0  0
   19.5167  -10.8286   19.8560 H   0  0  0  0  0  0  0  0  0  0  0  0
   20.7316  -13.2700   19.5854 H   0  0  0  0  0  0  0  0  0  0  0  0
   20.9758  -12.2283   21.0283 H   0  0  0  0  0  0  0  0  0  0  0  0
   16.0972  -16.2910   23.9790 H   0  0  0  0  0  0  0  0  0  0  0  0
   17.4443  -14.4113   25.1820 H   0  0  0  0  0  0  0  0  0  0  0  0
   18.0339  -16.1039   25.0620 H   0  0  0  0  0  0  0  0  0  0  0  0
   14.6053   -9.2462   19.8840 H   0  0  0  0  0  0  0  0  0  0  0  0
   14.3097  -10.9646   19.4521 H   0  0  0  0  0  0  0  0  0  0  0  0
   20.1135  -14.0396   22.1937 H   0  0  0  0  0  0  0  0  0  0  0  0
   19.3433  -14.7340   20.7270 H   0  0  0  0  0  0  0  0  0  0  0  0
   18.9659  -12.6793   25.5794 H   0  0  0  0  0  0  0  0  0  0  0  0
   21.2865  -11.8279   25.7569 H   0  0  0  0  0  0  0  0  0  0  0  0
   11.1745  -12.4304   22.7409 H   0  0  0  0  0  0  0  0  0  0  0  0
   23.1970  -13.2885   25.1165 H   0  0  0  0  0  0  0  0  0  0  0  0
   10.7975  -10.4226   24.1517 H   0  0  0  0  0  0  0  0  0  0  0  0
   22.7739  -15.6173   24.3502 H   0  0  0  0  0  0  0  0  0  0  0  0
   20.4417  -16.4549   24.1339 H   0  0  0  0  0  0  0  0  0  0  0  0
   13.9430   -8.3669   22.0556 H   0  0  0  0  0  0  0  0  0  0  0  0
   13.7343  -13.4438   21.2808 H   0  0  0  0  0  0  0  0  0  0  0  0
   12.0371  -13.3603   20.6987 H   0  0  0  0  0  0  0  0  0  0  0  0
   13.3452  -12.5491   19.7727 H   0  0  0  0  0  0  0  0  0  0  0  0
  1  2  1  0  0  0  0
  1 14  1  0  0  0  0
  1  3  1  0  0  0  0
  2  5  1  0  0  0  0
  2  7  1  0  0  0  0
  3  8  1  0  0  0  0
  3  4  1  0  0  0  0
  5  6  1  0  0  0  0
  5  9  2  0  0  0  0
  7 10  1  0  0  0  0
  8 11  2  0  0  0  0
  8 12  1  0  0  0  0
  9 13  1  0  0  0  0
 10 14  1  0  0  0  0
 12 15  1  0  0  0  0
 13 16  1  0  0  0  0
 15 17  2  0  0  0  0
 15 25  1  0  0  0  0
 16 18  2  0  0  0  0
 16 26  1  0  0  0  0
 17 19  1  0  0  0  0
 18 20  1  0  0  0  0
 18 28  1  0  0  0  0
 19 21  2  0  0  0  0
 20 22  2  0  0  0  0
 21 23  1  0  0  0  0
 22 24  1  0  0  0  0
 23 25  2  0  0  0  0
 24 26  2  0  0  0  0
 24 27  1  0  0  0  0
  2 29  1  0  0  0  0
  3 30  1  0  0  0  0
  4 31  1  0  0  0  0
  6 32  1  0  0  0  0
  7 33  1  0  0  0  0
  7 34  1  0  0  0  0
 10 35  1  0  0  0  0
 10 36  1  0  0  0  0
 11 37  1  0  0  0  0
 12 38  1  0  0  0  0
 12 39  1  0  0  0  0
 13 40  1  0  0  0  0
 13 41  1  0  0  0  0
 14 42  1  0  0  0  0
 14 43  1  0  0  0  0
 17 44  1  0  0  0  0
 19 45  1  0  0  0  0
 20 46  1  0  0  0  0
 21 47  1  0  0  0  0
 22 48  1  0  0  0  0
 23 49  1  0  0  0  0
 25 50  1  0  0  0  0
 26 51  1  0  0  0  0
 28 52  1  0  0  0  0
 28 53  1  0  0  0  0
 28 54  1  0  0  0  0
M  END
> <r_user_dG.exp>
-8.89

$$$$
6b
  -OEChem-05192314073D
 Structure written by MMmdl.
 54 56  0     1  0  0  0  0  0999 V2000
   18.2326  -13.2133   21.6902 N   0  0  0  0  0  0  0  0  0  0  0  0
   18.0295  -11.9153   21.0170 C   0  0  2  0  0  0  0  0  0  0  0  0
   17.3649  -13.7582   22.5771 C   0  0  0  0  0  0  0  0  0  0  0  0
   16.3644  -13.1506   22.9608 O   0  0  0  0  0  0  0  0  0  0  0  0
   16.6275  -11.7387   20.3833 C   0  0  0  0  0  0  0  0  0  0  0  0
   16.1735  -12.6139   19.6444 O   0  0  0  0  0  0  0  0  0  0  0  0
   19.1347  -11.8556   19.9527 C   0  0  0  0  0  0  0  0  0  0  0  0
   17.6230  -15.1593   23.1645 C   0  0  2  0  0  0  0  0  0  0  0  0
   15.9572  -10.6181   20.6810 N   0  0  0  0  0  0  0  0  0  0  0  0
   20.2327  -12.7823   20.4359 C   0  0  0  0  0  0  0  0  0  0  0  0
   16.3841  -15.9514   23.0833 N   0  0  0  0  0  0  0  0  0  0  0  0
   18.1081  -15.0943   24.6316 C   0  0  0  0  0  0  0  0  0  0  0  0
   14.6005  -10.2793   20.2619 C   0  0  0  0  0  0  0  0  0  0  0  0
   19.5144  -13.8108   21.3000 C   0  0  0  0  0  0  0  0  0  0  0  0
   19.5371  -14.6090   24.8070 C   0  0  0  0  0  0  0  0  0  0  0  0
   13.5525  -10.3776   21.3703 C   0  0  0  0  0  0  0  0  0  0  0  0
   19.7917  -13.3123   25.2901 C   0  0  0  0  0  0  0  0  0  0  0  0
   12.7721  -11.5442   21.5857 C   0  0  0  0  0  0  0  0  0  0  0  0
   21.1054  -12.8312   25.4007 C   0  0  0  0  0  0  0  0  0  0  0  0
   11.7792  -11.5483   22.5905 C   0  0  0  0  0  0  0  0  0  0  0  0
   22.1850  -13.6592   25.0464 C   0  0  0  0  0  0  0  0  0  0  0  0
   11.5701  -10.4151   23.3971 C   0  0  0  0  0  0  0  0  0  0  0  0
   21.9443  -14.9725   24.6001 C   0  0  0  0  0  0  0  0  0  0  0  0
   12.3694   -9.2730   23.2182 C   0  0  0  0  0  0  0  0  0  0  0  0
   20.6231  -15.4476   24.4787 C   0  0  0  0  0  0  0  0  0  0  0  0
   13.3447   -9.2541   22.2017 C   0  0  0  0  0  0  0  0  0  0  0  0
   12.1866   -7.9177   24.2734 Cl  0  0  0  0  0  0  0  0  0  0  0  0
   12.9870  -12.8115   20.7791 C   0  0  0  0  0  0  0  0  0  0  0  0
   18.1913  -11.1003   21.7378 H   0  0  0  0  0  0  0  0  0  0  0  0
   15.8822  -13.6903   23.5762 H   0  0  0  0  0  0  0  0  0  0  0  0
   18.7478  -12.1960   18.9808 H   0  0  0  0  0  0  0  0  0  0  0  0
   19.5167  -10.8286   19.8560 H   0  0  0  0  0  0  0  0  0  0  0  0
   16.4340   -9.9459   21.2473 H   0  0  0  0  0  0  0  0  0  0  0  0
   20.7316  -13.2700   19.5854 H   0  0  0  0  0  0  0  0  0  0  0  0
   20.9758  -12.2283   21.0283 H   0  0  0  0  0  0  0  0  0  0  0  0
   16.5448  -16.8624   23.4631 H   0  0  0  0  0  0  0  0  0  0  0  0
   15.6625  -15.4957   23.6044 H   0  0  0  0  0  0  0  0  0  0  0  0
   17.4443  -14.4113   25.1820 H   0  0  0  0  0  0  0  0  0  0  0  0
   18.0339  -16.1039   25.0620 H   0  0  0  0  0  0  0  0  0  0  0  0
   14.6053   -9.2462   19.8840 H   0  0  0  0  0  0  0  0  0  0  0  0
   14.3097  -10.9646   19.4521 H   0  0  0  0  0  0  0  0  0  0  0  0
   20.1135  -14.0396   22.1937 H   0  0  0  0  0  0  0  0  0  0  0  0
   19.3433  -14.7340   20.7270 H   0  0  0  0  0  0  0  0  0  0  0  0
   18.9659  -12.6793   25.5794 H   0  0  0  0  0  0  0  0  0  0  0  0
   21.2865  -11.8279   25.7569 H   0  0  0  0  0  0  0  0  0  0  0  0
   11.1745  -12.4304   22.7409 H   0  0  0  0  0  0  0  0  0  0  0  0
   23.1970  -13.2885   25.1165 H   0  0  0  0  0  0  0  0  0  0  0  0
   10.7975  -10.4226   24.1517 H   0  0  0  0  0  0  0  0  0  0  0  0
   22.7739  -15.6173   24.3502 H   0  0  0  0  0  0  0  0  0  0  0  0
   20.4417  -16.4549   24.1339 H   0  0  0  0  0  0  0  0  0  0  0  0
   13.9430   -8.3669   22.0556 H   0  0  0  0  0  0  0  0  0  0  0  0
   13.7343  -13.4438   21.2808 H   0  0  0  0  0  0  0  0  0  0  0  0
   12.0371  -13.3603   20.6987 H   0  0  0  0  0  0  0  0  0  0  0  0
   13.3452  -12.5491   19.7727 H   0  0  0  0  0  0  0  0  0  0  0  0
  1  2  1  0  0  0  0
  1 14  1  0  0  0  0
  1  3  1  0  0  0  0
  2  5  1  0  0  0  0
  2  7  1  0  0  0  0
  3  8  2  0  0  0  0
  3  4  1  0  0  0  0
  5  6  2  0  0  0  0
  5  9  1  0  0  0  0
  7 10  1  0  0  0  0
  8 11  1  0  0  0  0
  8 12  1  0  0  0  0
  9 13  1  0  0  0  0
 10 14  1  0  0  0  0
 12 15  1  0  0  0  0
 13 16  1  0  0  0  0
 15 17  2  0  0  0  0
 15 25  1  0  0  0  0
 16 18  2  0  0  0  0
 16 26  1  0  0  0  0
 17 19  1  0  0  0  0
 18 20  1  0  0  0  0
 18 28  1  0  0  0  0
 19 21  2  0  0  0  0
 20 22  2  0  0  0  0
 21 23  1  0  0  0  0
 22 24  1  0  0  0  0
 23 25  2  0  0  0  0
 24 26  2  0  0  0  0
 24 27  1  0  0  0  0
  2 29  1  0  0  0  0
  4 30  1  0  0  0  0
  7 31  1  0  0  0  0
  7 32  1  0  0  0  0
  9 33  1  0  0  0  0
 10 34  1  0  0  0  0
 10 35  1  0  0  0  0
 11 36  1  0  0  0  0
 11 37  1  0  0  0  0
 12 38  1  0  0  0  0
 12 39  1  0  0  0  0
 13 40  1  0  0  0  0
 13 41  1  0  0  0  0
 14 42  1  0  0  0  0
 14 43  1  0  0  0  0
 17 44  1  0  0  0  0
 19 45  1  0  0  0  0
 20 46  1  0  0  0  0
 21 47  1  0  0  0  0
 22 48  1  0  0  0  0
 23 49  1  0  0  0  0
 25 50  1  0  0  0  0
 26 51  1  0  0  0  0
 28 52  1  0  0  0  0
 28 53  1  0  0  0  0
 28 54  1  0  0  0  0
M  END
> <r_user_dG.exp>
-8.89

$$$$
6b
  -OEChem-05192314073D
 Structure written by MMmdl.
 54 56  0     1  0  0  0  0  0999 V2000
   18.2326  -13.2133   21.6902 N   0  0  0  0  0  0  0  0  0  0  0  0
   18.0295  -11.9153   21.0170 C   0  0  2  0  0  0  0  0  0  0  0  0
   17.3649  -13.7582   22.5771 C   0  0  0  0  0  0  0  0  0  0  0  0
   16.3644  -13.1506   22.9608 O   0  0  0  0  0  0  0  0  0  0  0  0
   16.6275  -11.7387   20.3833 C   0  0  0  0  0  0  0  0  0  0  0  0
   16.1735  -12.6139   19.6444 O   0  0  0  0  0  0  0  0  0  0  0  0
   19.1347  -11.8556   19.9527 C   0  0  0  0  0  0  0  0  0  0  0  0
   17.6230  -15.1593   23.1645 C   0  0  2  0  0  0  0  0  0  0  0  0
   15.9572  -10.6181   20.6810 N   0  0  0  0  0  0  0  0  0  0  0  0
   20.2327  -12.7823   20.4359 C   0  0  0  0  0  0  0  0  0  0  0  0
   16.3841  -15.9514   23.0833 N   0  0  0  0  0  0  0  0  0  0  0  0
   18.1081  -15.0943   24.6316 C   0  0  0  0  0  0  0  0  0  0  0  0
   14.6005  -10.2793   20.2619 C   0  0  0  0  0  0  0  0  0  0  0  0
   19.5144  -13.8108   21.3000 C   0  0  0  0  0  0  0  0  0  0  0  0
   19.5371  -14.6090   24.8070 C   0  0  0  0  0  0  0  0  0  0  0  0
   13.5525  -10.3776   21.3703 C   0  0  0  0  0  0  0  0  0  0  0  0
   19.7917  -13.3123   25.2901 C   0  0  0  0  0  0  0  0  0  0  0  0
   12.7721  -11.5442   21.5857 C   0  0  0  0  0  0  0  0  0  0  0  0
   21.1054  -12.8312   25.4007 C   0  0  0  0  0  0  0  0  0  0  0  0
   11.7792  -11.5483   22.5905 C   0  0  0  0  0  0  0  0  0  0  0  0
   22.1850  -13.6592   25.0464 C   0  0  0  0  0  0  0  0  0  0  0  0
   11.5701  -10.4151   23.3971 C   0  0  0  0  0  0  0  0  0  0  0  0
   21.9443  -14.9725   24.6001 C   0  0  0  0  0  0  0  0  0  0  0  0
   12.3694   -9.2730   23.2182 C   0  0  0  0  0  0  0  0  0  0  0  0
   20.6231  -15.4476   24.4787 C   0  0  0  0  0  0  0  0  0  0  0  0
   13.3447   -9.2541   22.2017 C   0  0  0  0  0  0  0  0  0  0  0  0
   12.1866   -7.9177   24.2734 Cl  0  0  0  0  0  0  0  0  0  0  0  0
   12.9870  -12.8115   20.7791 C   0  0  0  0  0  0  0  0  0  0  0  0
   18.1913  -11.1003   21.7378 H   0  0  0  0  0  0  0  0  0  0  0  0
   15.8822  -13.6903   23.5762 H   0  0  0  0  0  0  0  0  0  0  0  0
   15.3113  -12.3561   19.3401 H   0  0  0  0  0  0  0  0  0  0  0  0
   18.7478  -12.1960   18.9808 H   0  0  0  0  0  0  0  0  0  0  0  0
   19.5167  -10.8286   19.8560 H   0  0  0  0  0  0  0  0  0  0  0  0
   20.7316  -13.2700   19.5854 H   0  0  0  0  0  0  0  0  0  0  0  0
   20.9758  -12.2283   21.0283 H   0  0  0  0  0  0  0  0  0  0  0  0
   16.5448  -16.8624   23.4631 H   0  0  0  0  0  0  0  0  0  0  0  0
   15.6625  -15.4957   23.6044 H   0  0  0  0  0  0  0  0  0  0  0  0
   17.4443  -14.4113   25.1820 H   0  0  0  0  0  0  0  0  0  0  0  0
   18.0339  -16.1039   25.0620 H   0  0  0  0  0  0  0  0  0  0  0  0
   14.6053   -9.2462   19.8840 H   0  0  0  0  0  0  0  0  0  0  0  0
   14.3097  -10.9646   19.4521 H   0  0  0  0  0  0  0  0  0  0  0  0
   20.1135  -14.0396   22.1937 H   0  0  0  0  0  0  0  0  0  0  0  0
   19.3433  -14.7340   20.7270 H   0  0  0  0  0  0  0  0  0  0  0  0
   18.9659  -12.6793   25.5794 H   0  0  0  0  0  0  0  0  0  0  0  0
   21.2865  -11.8279   25.7569 H   0  0  0  0  0  0  0  0  0  0  0  0
   11.1745  -12.4304   22.7409 H   0  0  0  0  0  0  0  0  0  0  0  0
   23.1970  -13.2885   25.1165 H   0  0  0  0  0  0  0  0  0  0  0  0
   10.7975  -10.4226   24.1517 H   0  0  0  0  0  0  0  0  0  0  0  0
   22.7739  -15.6173   24.3502 H   0  0  0  0  0  0  0  0  0  0  0  0
   20.4417  -16.4549   24.1339 H   0  0  0  0  0  0  0  0  0  0  0  0
   13.9430   -8.3669   22.0556 H   0  0  0  0  0  0  0  0  0  0  0  0
   13.7343  -13.4438   21.2808 H   0  0  0  0  0  0  0  0  0  0  0  0
   12.0371  -13.3603   20.6987 H   0  0  0  0  0  0  0  0  0  0  0  0
   13.3452  -12.5491   19.7727 H   0  0  0  0  0  0  0  0  0  0  0  0
  1  2  1  0  0  0  0
  1 14  1  0  0  0  0
  1  3  1  0  0  0  0
  2  5  1  0  0  0  0
  2  7  1  0  0  0  0
  3  8  2  0  0  0  0
  3  4  1  0  0  0  0
  5  6  1  0  0  0  0
  5  9  2  0  0  0  0
  7 10  1  0  0  0  0
  8 11  1  0  0  0  0
  8 12  1  0  0  0  0
  9 13  1  0  0  0  0
 10 14  1  0  0  0  0
 12 15  1  0  0  0  0
 13 16  1  0  0  0  0
 15 17  2  0  0  0  0
 15 25  1  0  0  0  0
 16 18  2  0  0  0  0
 16 26  1  0  0  0  0
 17 19  1  0  0  0  0
 18 20  1  0  0  0  0
 18 28  1  0  0  0  0
 19 21  2  0  0  0  0
 20 22  2  0  0  0  0
 21 23  1  0  0  0  0
 22 24  1  0  0  0  0
 23 25  2  0  0  0  0
 24 26  2  0  0  0  0
 24 27  1  0  0  0  0
  2 29  1  0  0  0  0
  4 30  1  0  0  0  0
  6 31  1  0  0  0  0
  7 32  1  0  0  0  0
  7 33  1  0  0  0  0
 10 34  1  0  0  0  0
 10 35  1  0  0  0  0
 11 36  1  0  0  0  0
 11 37  1  0  0  0  0
 12 38  1  0  0  0  0
 12 39  1  0  0  0  0
 13 40  1  0  0  0  0
 13 41  1  0  0  0  0
 14 42  1  0  0  0  0
 14 43  1  0  0  0  0
 17 44  1  0  0  0  0
 19 45  1  0  0  0  0
 20 46  1  0  0  0  0
 21 47  1  0  0  0  0
 22 48  1  0  0  0  0
 23 49  1  0  0  0  0
 25 50  1  0  0  0  0
 26 51  1  0  0  0  0
 28 52  1  0  0  0  0
 28 53  1  0  0  0  0
 28 54  1  0  0  0  0
M  END
> <r_user_dG.exp>
-8.89

$$$$
