3a
  -OEChem-05192314073D
 Structure written by MMmdl.
 54 56  0     1  0  0  0  0  0999 V2000
   18.3586  -13.2433   21.6782 N   0  0  0  0  0  0  0  0  0  0  0  0
   18.1955  -11.9531   20.9799 C   0  0  2  0  0  0  0  0  0  0  0  0
   17.4601  -13.7625   22.5530 C   0  0  0  0  0  0  0  0  0  0  0  0
   16.4632  -13.1349   22.9149 O   0  0  0  0  0  0  0  0  0  0  0  0
   16.8176  -11.7793   20.3045 C   0  0  0  0  0  0  0  0  0  0  0  0
   16.3847  -12.6581   19.5563 O   0  0  0  0  0  0  0  0  0  0  0  0
   19.3213  -11.9263   19.9342 C   0  0  0  0  0  0  0  0  0  0  0  0
   17.6743  -15.1650   23.1542 C   0  0  2  0  0  0  0  0  0  0  0  0
   16.1459  -10.6550   20.5743 N   0  0  0  0  0  0  0  0  0  0  0  0
   20.3937  -12.8539   20.4646 C   0  0  0  0  0  0  0  0  0  0  0  0
   16.4158  -15.9247   23.0599 N   0  0  0  0  0  0  0  0  0  0  0  0
   18.1376  -15.1029   24.6287 C   0  0  0  0  0  0  0  0  0  0  0  0
   14.8056  -10.3296   20.1078 C   0  0  0  0  0  0  0  0  0  0  0  0
   19.6396  -13.8634   21.3222 C   0  0  0  0  0  0  0  0  0  0  0  0
   19.5621  -14.6136   24.8242 C   0  0  0  0  0  0  0  0  0  0  0  0
   13.7048  -10.8483   21.0151 C   0  0  0  0  0  0  0  0  0  0  0  0
   19.8032  -13.3127   25.3021 C   0  0  0  0  0  0  0  0  0  0  0  0
   13.2757  -12.1872   20.9048 C   0  0  0  0  0  0  0  0  0  0  0  0
   21.1122  -12.8206   25.4158 C   0  0  0  0  0  0  0  0  0  0  0  0
   12.2474  -12.6715   21.7347 C   0  0  0  0  0  0  0  0  0  0  0  0
   22.1996  -13.6407   25.0687 C   0  0  0  0  0  0  0  0  0  0  0  0
   11.6484  -11.8212   22.6817 C   0  0  0  0  0  0  0  0  0  0  0  0
   21.9724  -14.9597   24.6331 C   0  0  0  0  0  0  0  0  0  0  0  0
   12.0807  -10.4868   22.8072 C   0  0  0  0  0  0  0  0  0  0  0  0
   20.6559  -15.4473   24.5109 C   0  0  0  0  0  0  0  0  0  0  0  0
   13.1054   -9.9983   21.9692 C   0  0  0  0  0  0  0  0  0  0  0  0
   11.4642   -9.6050   23.8704 C   0  0  0  0  0  0  0  0  0  0  0  0
   18.3489  -11.1263   21.6890 H   0  0  0  0  0  0  0  0  0  0  0  0
   18.9508  -12.2841   18.9622 H   0  0  0  0  0  0  0  0  0  0  0  0
   19.7172  -10.9061   19.8227 H   0  0  0  0  0  0  0  0  0  0  0  0
   18.4520  -15.6778   22.5692 H   0  0  0  0  0  0  0  0  0  0  0  0
   16.6053   -9.9769   21.1479 H   0  0  0  0  0  0  0  0  0  0  0  0
   20.9140  -13.3590   19.6375 H   0  0  0  0  0  0  0  0  0  0  0  0
   21.1232  -12.2973   21.0712 H   0  0  0  0  0  0  0  0  0  0  0  0
   16.5466  -16.8369   23.4483 H   0  0  0  0  0  0  0  0  0  0  0  0
   15.6990  -15.4462   23.5671 H   0  0  0  0  0  0  0  0  0  0  0  0
   17.4640  -14.4235   25.1716 H   0  0  0  0  0  0  0  0  0  0  0  0
   18.0606  -16.1139   25.0553 H   0  0  0  0  0  0  0  0  0  0  0  0
   14.7160   -9.2352   20.0427 H   0  0  0  0  0  0  0  0  0  0  0  0
   14.6688  -10.7688   19.1086 H   0  0  0  0  0  0  0  0  0  0  0  0
   20.2149  -14.0928   22.2312 H   0  0  0  0  0  0  0  0  0  0  0  0
   19.4672  -14.7893   20.7539 H   0  0  0  0  0  0  0  0  0  0  0  0
   18.9708  -12.6853   25.5848 H   0  0  0  0  0  0  0  0  0  0  0  0
   13.7375  -12.8428   20.1814 H   0  0  0  0  0  0  0  0  0  0  0  0
   21.2838  -11.8145   25.7690 H   0  0  0  0  0  0  0  0  0  0  0  0
   11.9182  -13.6961   21.6444 H   0  0  0  0  0  0  0  0  0  0  0  0
   23.2078  -13.2594   25.1361 H   0  0  0  0  0  0  0  0  0  0  0  0
   10.8553  -12.1925   23.3139 H   0  0  0  0  0  0  0  0  0  0  0  0
   22.8086  -15.5993   24.3921 H   0  0  0  0  0  0  0  0  0  0  0  0
   20.4843  -16.4600   24.1771 H   0  0  0  0  0  0  0  0  0  0  0  0
   13.4315   -8.9726   22.0580 H   0  0  0  0  0  0  0  0  0  0  0  0
   12.0358   -9.7025   24.8051 H   0  0  0  0  0  0  0  0  0  0  0  0
   11.4854   -8.5575   23.5354 H   0  0  0  0  0  0  0  0  0  0  0  0
   10.4227   -9.9135   24.0438 H   0  0  0  0  0  0  0  0  0  0  0  0
  1  2  1  0  0  0  0
  1 14  1  0  0  0  0
  1  3  1  0  0  0  0
  2  5  1  0  0  0  0
  2  7  1  0  0  0  0
  3  8  1  0  0  0  0
  3  4  2  0  0  0  0
  5  6  2  0  0  0  0
  5  9  1  0  0  0  0
  7 10  1  0  0  0  0
  8 11  1  0  0  0  0
  8 12  1  0  0  0  0
  9 13  1  0  0  0  0
 10 14  1  0  0  0  0
 12 15  1  0  0  0  0
 13 16  1  0  0  0  0
 15 17  2  0  0  0  0
 15 25  1  0  0  0  0
 16 18  2  0  0  0  0
 16 26  1  0  0  0  0
 17 19  1  0  0  0  0
 18 20  1  0  0  0  0
 19 21  2  0  0  0  0
 20 22  2  0  0  0  0
 21 23  1  0  0  0  0
 22 24  1  0  0  0  0
 23 25  2  0  0  0  0
 24 26  2  0  0  0  0
 24 27  1  0  0  0  0
  2 28  1  0  0  0  0
  7 29  1  0  0  0  0
  7 30  1  0  0  0  0
  8 31  1  0  0  0  0
  9 32  1  0  0  0  0
 10 33  1  0  0  0  0
 10 34  1  0  0  0  0
 11 35  1  0  0  0  0
 11 36  1  0  0  0  0
 12 37  1  0  0  0  0
 12 38  1  0  0  0  0
 13 39  1  0  0  0  0
 13 40  1  0  0  0  0
 14 41  1  0  0  0  0
 14 42  1  0  0  0  0
 17 43  1  0  0  0  0
 18 44  1  0  0  0  0
 19 45  1  0  0  0  0
 20 46  1  0  0  0  0
 21 47  1  0  0  0  0
 22 48  1  0  0  0  0
 23 49  1  0  0  0  0
 25 50  1  0  0  0  0
 26 51  1  0  0  0  0
 27 52  1  0  0  0  0
 27 53  1  0  0  0  0
 27 54  1  0  0  0  0
M  END
> <r_user_dG.exp>
-8.32

$$$$
3a
  -OEChem-05192314073D
 Structure written by MMmdl.
 54 56  0     1  0  0  0  0  0999 V2000
   18.3586  -13.2433   21.6782 N   0  0  0  0  0  0  0  0  0  0  0  0
   18.1955  -11.9531   20.9799 C   0  0  2  0  0  0  0  0  0  0  0  0
   17.4601  -13.7625   22.5530 C   0  0  0  0  0  0  0  0  0  0  0  0
   16.4632  -13.1349   22.9149 O   0  0  0  0  0  0  0  0  0  0  0  0
   16.8176  -11.7793   20.3045 C   0  0  0  0  0  0  0  0  0  0  0  0
   16.3847  -12.6581   19.5563 O   0  0  0  0  0  0  0  0  0  0  0  0
   19.3213  -11.9263   19.9342 C   0  0  0  0  0  0  0  0  0  0  0  0
   17.6743  -15.1650   23.1542 C   0  0  2  0  0  0  0  0  0  0  0  0
   16.1459  -10.6550   20.5743 N   0  0  0  0  0  0  0  0  0  0  0  0
   20.3937  -12.8539   20.4646 C   0  0  0  0  0  0  0  0  0  0  0  0
   16.4158  -15.9247   23.0599 N   0  0  0  0  0  0  0  0  0  0  0  0
   18.1376  -15.1029   24.6287 C   0  0  0  0  0  0  0  0  0  0  0  0
   14.8056  -10.3296   20.1078 C   0  0  0  0  0  0  0  0  0  0  0  0
   19.6396  -13.8634   21.3222 C   0  0  0  0  0  0  0  0  0  0  0  0
   19.5621  -14.6136   24.8242 C   0  0  0  0  0  0  0  0  0  0  0  0
   13.7048  -10.8483   21.0151 C   0  0  0  0  0  0  0  0  0  0  0  0
   19.8032  -13.3127   25.3021 C   0  0  0  0  0  0  0  0  0  0  0  0
   13.2757  -12.1872   20.9048 C   0  0  0  0  0  0  0  0  0  0  0  0
   21.1122  -12.8206   25.4158 C   0  0  0  0  0  0  0  0  0  0  0  0
   12.2474  -12.6715   21.7347 C   0  0  0  0  0  0  0  0  0  0  0  0
   22.1996  -13.6407   25.0687 C   0  0  0  0  0  0  0  0  0  0  0  0
   11.6484  -11.8212   22.6817 C   0  0  0  0  0  0  0  0  0  0  0  0
   21.9724  -14.9597   24.6331 C   0  0  0  0  0  0  0  0  0  0  0  0
   12.0807  -10.4868   22.8072 C   0  0  0  0  0  0  0  0  0  0  0  0
   20.6559  -15.4473   24.5109 C   0  0  0  0  0  0  0  0  0  0  0  0
   13.1054   -9.9983   21.9692 C   0  0  0  0  0  0  0  0  0  0  0  0
   11.4642   -9.6050   23.8704 C   0  0  0  0  0  0  0  0  0  0  0  0
   18.3489  -11.1263   21.6890 H   0  0  0  0  0  0  0  0  0  0  0  0
   15.5325  -12.4007   19.2246 H   0  0  0  0  0  0  0  0  0  0  0  0
   18.9508  -12.2841   18.9622 H   0  0  0  0  0  0  0  0  0  0  0  0
   19.7172  -10.9061   19.8227 H   0  0  0  0  0  0  0  0  0  0  0  0
   18.4520  -15.6778   22.5692 H   0  0  0  0  0  0  0  0  0  0  0  0
   20.9140  -13.3590   19.6375 H   0  0  0  0  0  0  0  0  0  0  0  0
   21.1232  -12.2973   21.0712 H   0  0  0  0  0  0  0  0  0  0  0  0
   16.5466  -16.8369   23.4483 H   0  0  0  0  0  0  0  0  0  0  0  0
   15.6990  -15.4462   23.5671 H   0  0  0  0  0  0  0  0  0  0  0  0
   17.4640  -14.4235   25.1716 H   0  0  0  0  0  0  0  0  0  0  0  0
   18.0606  -16.1139   25.0553 H   0  0  0  0  0  0  0  0  0  0  0  0
   14.7160   -9.2352   20.0427 H   0  0  0  0  0  0  0  0  0  0  0  0
   14.6688  -10.7688   19.1086 H   0  0  0  0  0  0  0  0  0  0  0  0
   20.2149  -14.0928   22.2312 H   0  0  0  0  0  0  0  0  0  0  0  0
   19.4672  -14.7893   20.7539 H   0  0  0  0  0  0  0  0  0  0  0  0
   18.9708  -12.6853   25.5848 H   0  0  0  0  0  0  0  0  0  0  0  0
   13.7375  -12.8428   20.1814 H   0  0  0  0  0  0  0  0  0  0  0  0
   21.2838  -11.8145   25.7690 H   0  0  0  0  0  0  0  0  0  0  0  0
   11.9182  -13.6961   21.6444 H   0  0  0  0  0  0  0  0  0  0  0  0
   23.2078  -13.2594   25.1361 H   0  0  0  0  0  0  0  0  0  0  0  0
   10.8553  -12.1925   23.3139 H   0  0  0  0  0  0  0  0  0  0  0  0
   22.8086  -15.5993   24.3921 H   0  0  0  0  0  0  0  0  0  0  0  0
   20.4843  -16.4600   24.1771 H   0  0  0  0  0  0  0  0  0  0  0  0
   13.4315   -8.9726   22.0580 H   0  0  0  0  0  0  0  0  0  0  0  0
   12.0358   -9.7025   24.8051 H   0  0  0  0  0  0  0  0  0  0  0  0
   11.4854   -8.5575   23.5354 H   0  0  0  0  0  0  0  0  0  0  0  0
   10.4227   -9.9135   24.0438 H   0  0  0  0  0  0  0  0  0  0  0  0
  1  2  1  0  0  0  0
  1 14  1  0  0  0  0
  1  3  1  0  0  0  0
  2  5  1  0  0  0  0
  2  7  1  0  0  0  0
  3  8  1  0  0  0  0
  3  4  2  0  0  0  0
  5  6  1  0  0  0  0
  5  9  2  0  0  0  0
  7 10  1  0  0  0  0
  8 11  1  0  0  0  0
  8 12  1  0  0  0  0
  9 13  1  0  0  0  0
 10 14  1  0  0  0  0
 12 15  1  0  0  0  0
 13 16  1  0  0  0  0
 15 17  2  0  0  0  0
 15 25  1  0  0  0  0
 16 18  2  0  0  0  0
 16 26  1  0  0  0  0
 17 19  1  0  0  0  0
 18 20  1  0  0  0  0
 19 21  2  0  0  0  0
 20 22  2  0  0  0  0
 21 23  1  0  0  0  0
 22 24  1  0  0  0  0
 23 25  2  0  0  0  0
 24 26  2  0  0  0  0
 24 27  1  0  0  0  0
  2 28  1  0  0  0  0
  6 29  1  0  0  0  0
  7 30  1  0  0  0  0
  7 31  1  0  0  0  0
  8 32  1  0  0  0  0
 10 33  1  0  0  0  0
 10 34  1  0  0  0  0
 11 35  1  0  0  0  0
 11 36  1  0  0  0  0
 12 37  1  0  0  0  0
 12 38  1  0  0  0  0
 13 39  1  0  0  0  0
 13 40  1  0  0  0  0
 14 41  1  0  0  0  0
 14 42  1  0  0  0  0
 17 43  1  0  0  0  0
 18 44  1  0  0  0  0
 19 45  1  0  0  0  0
 20 46  1  0  0  0  0
 21 47  1  0  0  0  0
 22 48  1  0  0  0  0
 23 49  1  0  0  0  0
 25 50  1  0  0  0  0
 26 51  1  0  0  0  0
 27 52  1  0  0  0  0
 27 53  1  0  0  0  0
 27 54  1  0  0  0  0
M  END
> <r_user_dG.exp>
-8.32

$$$$
3a
  -OEChem-05192314073D
 Structure written by MMmdl.
 54 56  0     1  0  0  0  0  0999 V2000
   18.3586  -13.2433   21.6782 N   0  0  0  0  0  0  0  0  0  0  0  0
   18.1955  -11.9531   20.9799 C   0  0  2  0  0  0  0  0  0  0  0  0
   17.4601  -13.7625   22.5530 C   0  0  0  0  0  0  0  0  0  0  0  0
   16.4632  -13.1349   22.9149 O   0  0  0  0  0  0  0  0  0  0  0  0
   16.8176  -11.7793   20.3045 C   0  0  0  0  0  0  0  0  0  0  0  0
   16.3847  -12.6581   19.5563 O   0  0  0  0  0  0  0  0  0  0  0  0
   19.3213  -11.9263   19.9342 C   0  0  0  0  0  0  0  0  0  0  0  0
   17.6743  -15.1650   23.1542 C   0  0  2  0  0  0  0  0  0  0  0  0
   16.1459  -10.6550   20.5743 N   0  0  0  0  0  0  0  0  0  0  0  0
   20.3937  -12.8539   20.4646 C   0  0  0  0  0  0  0  0  0  0  0  0
   16.4158  -15.9247   23.0599 N   0  0  0  0  0  0  0  0  0  0  0  0
   18.1376  -15.1029   24.6287 C   0  0  0  0  0  0  0  0  0  0  0  0
   14.8056  -10.3296   20.1078 C   0  0  0  0  0  0  0  0  0  0  0  0
   19.6396  -13.8634   21.3222 C   0  0  0  0  0  0  0  0  0  0  0  0
   19.5621  -14.6136   24.8242 C   0  0  0  0  0  0  0  0  0  0  0  0
   13.7048  -10.8483   21.0151 C   0  0  0  0  0  0  0  0  0  0  0  0
   19.8032  -13.3127   25.3021 C   0  0  0  0  0  0  0  0  0  0  0  0
   13.2757  -12.1872   20.9048 C   0  0  0  0  0  0  0  0  0  0  0  0
   21.1122  -12.8206   25.4158 C   0  0  0  0  0  0  0  0  0  0  0  0
   12.2474  -12.6715   21.7347 C   0  0  0  0  0  0  0  0  0  0  0  0
   22.1996  -13.6407   25.0687 C   0  0  0  0  0  0  0  0  0  0  0  0
   11.6484  -11.8212   22.6817 C   0  0  0  0  0  0  0  0  0  0  0  0
   21.9724  -14.9597   24.6331 C   0  0  0  0  0  0  0  0  0  0  0  0
   12.0807  -10.4868   22.8072 C   0  0  0  0  0  0  0  0  0  0  0  0
   20.6559  -15.4473   24.5109 C   0  0  0  0  0  0  0  0  0  0  0  0
   13.1054   -9.9983   21.9692 C   0  0  0  0  0  0  0  0  0  0  0  0
   11.4642   -9.6050   23.8704 C   0  0  0  0  0  0  0  0  0  0  0  0
   18.3489  -11.1263   21.6890 H   0  0  0  0  0  0  0  0  0  0  0  0
   16.8912  -14.2001   21.7194 H   0  0  0  0  0  0  0  0  0  0  0  0
   15.9603  -13.6624   23.5243 H   0  0  0  0  0  0  0  0  0  0  0  0
   18.9508  -12.2841   18.9622 H   0  0  0  0  0  0  0  0  0  0  0  0
   19.7172  -10.9061   19.8227 H   0  0  0  0  0  0  0  0  0  0  0  0
   16.6053   -9.9769   21.1479 H   0  0  0  0  0  0  0  0  0  0  0  0
   20.9140  -13.3590   19.6375 H   0  0  0  0  0  0  0  0  0  0  0  0
   21.1232  -12.2973   21.0712 H   0  0  0  0  0  0  0  0  0  0  0  0
   16.1067  -16.2499   23.9536 H   0  0  0  0  0  0  0  0  0  0  0  0
   17.4640  -14.4235   25.1716 H   0  0  0  0  0  0  0  0  0  0  0  0
   18.0606  -16.1139   25.0553 H   0  0  0  0  0  0  0  0  0  0  0  0
   14.7160   -9.2352   20.0427 H   0  0  0  0  0  0  0  0  0  0  0  0
   14.6688  -10.7688   19.1086 H   0  0  0  0  0  0  0  0  0  0  0  0
   20.2149  -14.0928   22.2312 H   0  0  0  0  0  0  0  0  0  0  0  0
   19.4672  -14.7893   20.7539 H   0  0  0  0  0  0  0  0  0  0  0  0
   18.9708  -12.6853   25.5848 H   0  0  0  0  0  0  0  0  0  0  0  0
   13.7375  -12.8428   20.1814 H   0  0  0  0  0  0  0  0  0  0  0  0
   21.2838  -11.8145   25.7690 H   0  0  0  0  0  0  0  0  0  0  0  0
   11.9182  -13.6961   21.6444 H   0  0  0  0  0  0  0  0  0  0  0  0
   23.2078  -13.2594   25.1361 H   0  0  0  0  0  0  0  0  0  0  0  0
   10.8553  -12.1925   23.3139 H   0  0  0  0  0  0  0  0  0  0  0  0
   22.8086  -15.5993   24.3921 H   0  0  0  0  0  0  0  0  0  0  0  0
   20.4843  -16.4600   24.1771 H   0  0  0  0  0  0  0  0  0  0  0  0
   13.4315   -8.9726   22.0580 H   0  0  0  0  0  0  0  0  0  0  0  0
   12.0358   -9.7025   24.8051 H   0  0  0  0  0  0  0  0  0  0  0  0
   11.4854   -8.5575   23.5354 H   0  0  0  0  0  0  0  0  0  0  0  0
   10.4227   -9.9135   24.0438 H   0  0  0  0  0  0  0  0  0  0  0  0
  1  2  1  0  0  0  0
  1 14  1  0  0  0  0
  1  3  1  0  0  0  0
  2  5  1  0  0  0  0
  2  7  1  0  0  0  0
  3  8  1  0  0  0  0
  3  4  1  0  0  0  0
  5  6  2  0  0  0  0
  5  9  1  0  0  0  0
  7 10  1  0  0  0  0
  8 11  2  0  0  0  0
  8 12  1  0  0  0  0
  9 13  1  0  0  0  0
 10 14  1  0  0  0  0
 12 15  1  0  0  0  0
 13 16  1  0  0  0  0
 15 17  2  0  0  0  0
 15 25  1  0  0  0  0
 16 18  2  0  0  0  0
 16 26  1  0  0  0  0
 17 19  1  0  0  0  0
 18 20  1  0  0  0  0
 19 21  2  0  0  0  0
 20 22  2  0  0  0  0
 21 23  1  0  0  0  0
 22 24  1  0  0  0  0
 23 25  2  0  0  0  0
 24 26  2  0  0  0  0
 24 27  1  0  0  0  0
  2 28  1  0  0  0  0
  3 29  1  0  0  0  0
  4 30  1  0  0  0  0
  7 31  1  0  0  0  0
  7 32  1  0  0  0  0
  9 33  1  0  0  0  0
 10 34  1  0  0  0  0
 10 35  1  0  0  0  0
 11 36  1  0  0  0  0
 12 37  1  0  0  0  0
 12 38  1  0  0  0  0
 13 39  1  0  0  0  0
 13 40  1  0  0  0  0
 14 41  1  0  0  0  0
 14 42  1  0  0  0  0
 17 43  1  0  0  0  0
 18 44  1  0  0  0  0
 19 45  1  0  0  0  0
 20 46  1  0  0  0  0
 21 47  1  0  0  0  0
 22 48  1  0  0  0  0
 23 49  1  0  0  0  0
 25 50  1  0  0  0  0
 26 51  1  0  0  0  0
 27 52  1  0  0  0  0
 27 53  1  0  0  0  0
 27 54  1  0  0  0  0
M  END
> <r_user_dG.exp>
-8.32

$$$$
3a
  -OEChem-05192314073D
 Structure written by MMmdl.
 54 56  0     1  0  0  0  0  0999 V2000
   18.3586  -13.2433   21.6782 N   0  0  0  0  0  0  0  0  0  0  0  0
   18.1955  -11.9531   20.9799 C   0  0  2  0  0  0  0  0  0  0  0  0
   17.4601  -13.7625   22.5530 C   0  0  0  0  0  0  0  0  0  0  0  0
   16.4632  -13.1349   22.9149 O   0  0  0  0  0  0  0  0  0  0  0  0
   16.8176  -11.7793   20.3045 C   0  0  0  0  0  0  0  0  0  0  0  0
   16.3847  -12.6581   19.5563 O   0  0  0  0  0  0  0  0  0  0  0  0
   19.3213  -11.9263   19.9342 C   0  0  0  0  0  0  0  0  0  0  0  0
   17.6743  -15.1650   23.1542 C   0  0  2  0  0  0  0  0  0  0  0  0
   16.1459  -10.6550   20.5743 N   0  0  0  0  0  0  0  0  0  0  0  0
   20.3937  -12.8539   20.4646 C   0  0  0  0  0  0  0  0  0  0  0  0
   16.4158  -15.9247   23.0599 N   0  0  0  0  0  0  0  0  0  0  0  0
   18.1376  -15.1029   24.6287 C   0  0  0  0  0  0  0  0  0  0  0  0
   14.8056  -10.3296   20.1078 C   0  0  0  0  0  0  0  0  0  0  0  0
   19.6396  -13.8634   21.3222 C   0  0  0  0  0  0  0  0  0  0  0  0
   19.5621  -14.6136   24.8242 C   0  0  0  0  0  0  0  0  0  0  0  0
   13.7048  -10.8483   21.0151 C   0  0  0  0  0  0  0  0  0  0  0  0
   19.8032  -13.3127   25.3021 C   0  0  0  0  0  0  0  0  0  0  0  0
   13.2757  -12.1872   20.9048 C   0  0  0  0  0  0  0  0  0  0  0  0
   21.1122  -12.8206   25.4158 C   0  0  0  0  0  0  0  0  0  0  0  0
   12.2474  -12.6715   21.7347 C   0  0  0  0  0  0  0  0  0  0  0  0
   22.1996  -13.6407   25.0687 C   0  0  0  0  0  0  0  0  0  0  0  0
   11.6484  -11.8212   22.6817 C   0  0  0  0  0  0  0  0  0  0  0  0
   21.9724  -14.9597   24.6331 C   0  0  0  0  0  0  0  0  0  0  0  0
   12.0807  -10.4868   22.8072 C   0  0  0  0  0  0  0  0  0  0  0  0
   20.6559  -15.4473   24.5109 C   0  0  0  0  0  0  0  0  0  0  0  0
   13.1054   -9.9983   21.9692 C   0  0  0  0  0  0  0  0  0  0  0  0
   11.4642   -9.6050   23.8704 C   0  0  0  0  0  0  0  0  0  0  0  0
   18.3489  -11.1263   21.6890 H   0  0  0  0  0  0  0  0  0  0  0  0
   16.8912  -14.2001   21.7194 H   0  0  0  0  0  0  0  0  0  0  0  0
   15.9603  -13.6624   23.5243 H   0  0  0  0  0  0  0  0  0  0  0  0
   15.5325  -12.4007   19.2246 H   0  0  0  0  0  0  0  0  0  0  0  0
   18.9508  -12.2841   18.9622 H   0  0  0  0  0  0  0  0  0  0  0  0
   19.7172  -10.9061   19.8227 H   0  0  0  0  0  0  0  0  0  0  0  0
   20.9140  -13.3590   19.6375 H   0  0  0  0  0  0  0  0  0  0  0  0
   21.1232  -12.2973   21.0712 H   0  0  0  0  0  0  0  0  0  0  0  0
   16.1067  -16.2499   23.9536 H   0  0  0  0  0  0  0  0  0  0  0  0
   17.4640  -14.4235   25.1716 H   0  0  0  0  0  0  0  0  0  0  0  0
   18.0606  -16.1139   25.0553 H   0  0  0  0  0  0  0  0  0  0  0  0
   14.7160   -9.2352   20.0427 H   0  0  0  0  0  0  0  0  0  0  0  0
   14.6688  -10.7688   19.1086 H   0  0  0  0  0  0  0  0  0  0  0  0
   20.2149  -14.0928   22.2312 H   0  0  0  0  0  0  0  0  0  0  0  0
   19.4672  -14.7893   20.7539 H   0  0  0  0  0  0  0  0  0  0  0  0
   18.9708  -12.6853   25.5848 H   0  0  0  0  0  0  0  0  0  0  0  0
   13.7375  -12.8428   20.1814 H   0  0  0  0  0  0  0  0  0  0  0  0
   21.2838  -11.8145   25.7690 H   0  0  0  0  0  0  0  0  0  0  0  0
   11.9182  -13.6961   21.6444 H   0  0  0  0  0  0  0  0  0  0  0  0
   23.2078  -13.2594   25.1361 H   0  0  0  0  0  0  0  0  0  0  0  0
   10.8553  -12.1925   23.3139 H   0  0  0  0  0  0  0  0  0  0  0  0
   22.8086  -15.5993   24.3921 H   0  0  0  0  0  0  0  0  0  0  0  0
   20.4843  -16.4600   24.1771 H   0  0  0  0  0  0  0  0  0  0  0  0
   13.4315   -8.9726   22.0580 H   0  0  0  0  0  0  0  0  0  0  0  0
   12.0358   -9.7025   24.8051 H   0  0  0  0  0  0  0  0  0  0  0  0
   11.4854   -8.5575   23.5354 H   0  0  0  0  0  0  0  0  0  0  0  0
   10.4227   -9.9135   24.0438 H   0  0  0  0  0  0  0  0  0  0  0  0
  1  2  1  0  0  0  0
  1 14  1  0  0  0  0
  1  3  1  0  0  0  0
  2  5  1  0  0  0  0
  2  7  1  0  0  0  0
  3  8  1  0  0  0  0
  3  4  1  0  0  0  0
  5  6  1  0  0  0  0
  5  9  2  0  0  0  0
  7 10  1  0  0  0  0
  8 11  2  0  0  0  0
  8 12  1  0  0  0  0
  9 13  1  0  0  0  0
 10 14  1  0  0  0  0
 12 15  1  0  0  0  0
 13 16  1  0  0  0  0
 15 17  2  0  0  0  0
 15 25  1  0  0  0  0
 16 18  2  0  0  0  0
 16 26  1  0  0  0  0
 17 19  1  0  0  0  0
 18 20  1  0  0  0  0
 19 21  2  0  0  0  0
 20 22  2  0  0  0  0
 21 23  1  0  0  0  0
 22 24  1  0  0  0  0
 23 25  2  0  0  0  0
 24 26  2  0  0  0  0
 24 27  1  0  0  0  0
  2 28  1  0  0  0  0
  3 29  1  0  0  0  0
  4 30  1  0  0  0  0
  6 31  1  0  0  0  0
  7 32  1  0  0  0  0
  7 33  1  0  0  0  0
 10 34  1  0  0  0  0
 10 35  1  0  0  0  0
 11 36  1  0  0  0  0
 12 37  1  0  0  0  0
 12 38  1  0  0  0  0
 13 39  1  0  0  0  0
 13 40  1  0  0  0  0
 14 41  1  0  0  0  0
 14 42  1  0  0  0  0
 17 43  1  0  0  0  0
 18 44  1  0  0  0  0
 19 45  1  0  0  0  0
 20 46  1  0  0  0  0
 21 47  1  0  0  0  0
 22 48  1  0  0  0  0
 23 49  1  0  0  0  0
 25 50  1  0  0  0  0
 26 51  1  0  0  0  0
 27 52  1  0  0  0  0
 27 53  1  0  0  0  0
 27 54  1  0  0  0  0
M  END
> <r_user_dG.exp>
-8.32

$$$$
3a
  -OEChem-05192314073D
 Structure written by MMmdl.
 54 56  0     1  0  0  0  0  0999 V2000
   18.3586  -13.2433   21.6782 N   0  0  0  0  0  0  0  0  0  0  0  0
   18.1955  -11.9531   20.9799 C   0  0  2  0  0  0  0  0  0  0  0  0
   17.4601  -13.7625   22.5530 C   0  0  0  0  0  0  0  0  0  0  0  0
   16.4632  -13.1349   22.9149 O   0  0  0  0  0  0  0  0  0  0  0  0
   16.8176  -11.7793   20.3045 C   0  0  0  0  0  0  0  0  0  0  0  0
   16.3847  -12.6581   19.5563 O   0  0  0  0  0  0  0  0  0  0  0  0
   19.3213  -11.9263   19.9342 C   0  0  0  0  0  0  0  0  0  0  0  0
   17.6743  -15.1650   23.1542 C   0  0  2  0  0  0  0  0  0  0  0  0
   16.1459  -10.6550   20.5743 N   0  0  0  0  0  0  0  0  0  0  0  0
   20.3937  -12.8539   20.4646 C   0  0  0  0  0  0  0  0  0  0  0  0
   16.4158  -15.9247   23.0599 N   0  0  0  0  0  0  0  0  0  0  0  0
   18.1376  -15.1029   24.6287 C   0  0  0  0  0  0  0  0  0  0  0  0
   14.8056  -10.3296   20.1078 C   0  0  0  0  0  0  0  0  0  0  0  0
   19.6396  -13.8634   21.3222 C   0  0  0  0  0  0  0  0  0  0  0  0
   19.5621  -14.6136   24.8242 C   0  0  0  0  0  0  0  0  0  0  0  0
   13.7048  -10.8483   21.0151 C   0  0  0  0  0  0  0  0  0  0  0  0
   19.8032  -13.3127   25.3021 C   0  0  0  0  0  0  0  0  0  0  0  0
   13.2757  -12.1872   20.9048 C   0  0  0  0  0  0  0  0  0  0  0  0
   21.1122  -12.8206   25.4158 C   0  0  0  0  0  0  0  0  0  0  0  0
   12.2474  -12.6715   21.7347 C   0  0  0  0  0  0  0  0  0  0  0  0
   22.1996  -13.6407   25.0687 C   0  0  0  0  0  0  0  0  0  0  0  0
   11.6484  -11.8212   22.6817 C   0  0  0  0  0  0  0  0  0  0  0  0
   21.9724  -14.9597   24.6331 C   0  0  0  0  0  0  0  0  0  0  0  0
   12.0807  -10.4868   22.8072 C   0  0  0  0  0  0  0  0  0  0  0  0
   20.6559  -15.4473   24.5109 C   0  0  0  0  0  0  0  0  0  0  0  0
   13.1054   -9.9983   21.9692 C   0  0  0  0  0  0  0  0  0  0  0  0
   11.4642   -9.6050   23.8704 C   0  0  0  0  0  0  0  0  0  0  0  0
   18.3489  -11.1263   21.6890 H   0  0  0  0  0  0  0  0  0  0  0  0
   15.9603  -13.6624   23.5243 H   0  0  0  0  0  0  0  0  0  0  0  0
   18.9508  -12.2841   18.9622 H   0  0  0  0  0  0  0  0  0  0  0  0
   19.7172  -10.9061   19.8227 H   0  0  0  0  0  0  0  0  0  0  0  0
   16.6053   -9.9769   21.1479 H   0  0  0  0  0  0  0  0  0  0  0  0
   20.9140  -13.3590   19.6375 H   0  0  0  0  0  0  0  0  0  0  0  0
   21.1232  -12.2973   21.0712 H   0  0  0  0  0  0  0  0  0  0  0  0
   16.5466  -16.8369   23.4483 H   0  0  0  0  0  0  0  0  0  0  0  0
   15.6990  -15.4462   23.5671 H   0  0  0  0  0  0  0  0  0  0  0  0
   17.4640  -14.4235   25.1716 H   0  0  0  0  0  0  0  0  0  0  0  0
   18.0606  -16.1139   25.0553 H   0  0  0  0  0  0  0  0  0  0  0  0
   14.7160   -9.2352   20.0427 H   0  0  0  0  0  0  0  0  0  0  0  0
   14.6688  -10.7688   19.1086 H   0  0  0  0  0  0  0  0  0  0  0  0
   20.2149  -14.0928   22.2312 H   0  0  0  0  0  0  0  0  0  0  0  0
   19.4672  -14.7893   20.7539 H   0  0  0  0  0  0  0  0  0  0  0  0
   18.9708  -12.6853   25.5848 H   0  0  0  0  0  0  0  0  0  0  0  0
   13.7375  -12.8428   20.1814 H   0  0  0  0  0  0  0  0  0  0  0  0
   21.2838  -11.8145   25.7690 H   0  0  0  0  0  0  0  0  0  0  0  0
   11.9182  -13.6961   21.6444 H   0  0  0  0  0  0  0  0  0  0  0  0
   23.2078  -13.2594   25.1361 H   0  0  0  0  0  0  0  0  0  0  0  0
   10.8553  -12.1925   23.3139 H   0  0  0  0  0  0  0  0  0  0  0  0
   22.8086  -15.5993   24.3921 H   0  0  0  0  0  0  0  0  0  0  0  0
   20.4843  -16.4600   24.1771 H   0  0  0  0  0  0  0  0  0  0  0  0
   13.4315   -8.9726   22.0580 H   0  0  0  0  0  0  0  0  0  0  0  0
   12.0358   -9.7025   24.8051 H   0  0  0  0  0  0  0  0  0  0  0  0
   11.4854   -8.5575   23.5354 H   0  0  0  0  0  0  0  0  0  0  0  0
   10.4227   -9.9135   24.0438 H   0  0  0  0  0  0  0  0  0  0  0  0
  1  2  1  0  0  0  0
  1 14  1  0  0  0  0
  1  3  1  0  0  0  0
  2  5  1  0  0  0  0
  2  7  1  0  0  0  0
  3  8  2  0  0  0  0
  3  4  1  0  0  0  0
  5  6  2  0  0  0  0
  5  9  1  0  0  0  0
  7 10  1  0  0  0  0
  8 11  1  0  0  0  0
  8 12  1  0  0  0  0
  9 13  1  0  0  0  0
 10 14  1  0  0  0  0
 12 15  1  0  0  0  0
 13 16  1  0  0  0  0
 15 17  2  0  0  0  0
 15 25  1  0  0  0  0
 16 18  2  0  0  0  0
 16 26  1  0  0  0  0
 17 19  1  0  0  0  0
 18 20  1  0  0  0  0
 19 21  2  0  0  0  0
 20 22  2  0  0  0  0
 21 23  1  0  0  0  0
 22 24  1  0  0  0  0
 23 25  2  0  0  0  0
 24 26  2  0  0  0  0
 24 27  1  0  0  0  0
  2 28  1  0  0  0  0
  4 29  1  0  0  0  0
  7 30  1  0  0  0  0
  7 31  1  0  0  0  0
  9 32  1  0  0  0  0
 10 33  1  0  0  0  0
 10 34  1  0  0  0  0
 11 35  1  0  0  0  0
 11 36  1  0  0  0  0
 12 37  1  0  0  0  0
 12 38  1  0  0  0  0
 13 39  1  0  0  0  0
 13 40  1  0  0  0  0
 14 41  1  0  0  0  0
 14 42  1  0  0  0  0
 17 43  1  0  0  0  0
 18 44  1  0  0  0  0
 19 45  1  0  0  0  0
 20 46  1  0  0  0  0
 21 47  1  0  0  0  0
 22 48  1  0  0  0  0
 23 49  1  0  0  0  0
 25 50  1  0  0  0  0
 26 51  1  0  0  0  0
 27 52  1  0  0  0  0
 27 53  1  0  0  0  0
 27 54  1  0  0  0  0
M  END
> <r_user_dG.exp>
-8.32

$$$$
3a
  -OEChem-05192314073D
 Structure written by MMmdl.
 54 56  0     1  0  0  0  0  0999 V2000
   18.3586  -13.2433   21.6782 N   0  0  0  0  0  0  0  0  0  0  0  0
   18.1955  -11.9531   20.9799 C   0  0  2  0  0  0  0  0  0  0  0  0
   17.4601  -13.7625   22.5530 C   0  0  0  0  0  0  0  0  0  0  0  0
   16.4632  -13.1349   22.9149 O   0  0  0  0  0  0  0  0  0  0  0  0
   16.8176  -11.7793   20.3045 C   0  0  0  0  0  0  0  0  0  0  0  0
   16.3847  -12.6581   19.5563 O   0  0  0  0  0  0  0  0  0  0  0  0
   19.3213  -11.9263   19.9342 C   0  0  0  0  0  0  0  0  0  0  0  0
   17.6743  -15.1650   23.1542 C   0  0  2  0  0  0  0  0  0  0  0  0
   16.1459  -10.6550   20.5743 N   0  0  0  0  0  0  0  0  0  0  0  0
   20.3937  -12.8539   20.4646 C   0  0  0  0  0  0  0  0  0  0  0  0
   16.4158  -15.9247   23.0599 N   0  0  0  0  0  0  0  0  0  0  0  0
   18.1376  -15.1029   24.6287 C   0  0  0  0  0  0  0  0  0  0  0  0
   14.8056  -10.3296   20.1078 C   0  0  0  0  0  0  0  0  0  0  0  0
   19.6396  -13.8634   21.3222 C   0  0  0  0  0  0  0  0  0  0  0  0
   19.5621  -14.6136   24.8242 C   0  0  0  0  0  0  0  0  0  0  0  0
   13.7048  -10.8483   21.0151 C   0  0  0  0  0  0  0  0  0  0  0  0
   19.8032  -13.3127   25.3021 C   0  0  0  0  0  0  0  0  0  0  0  0
   13.2757  -12.1872   20.9048 C   0  0  0  0  0  0  0  0  0  0  0  0
   21.1122  -12.8206   25.4158 C   0  0  0  0  0  0  0  0  0  0  0  0
   12.2474  -12.6715   21.7347 C   0  0  0  0  0  0  0  0  0  0  0  0
   22.1996  -13.6407   25.0687 C   0  0  0  0  0  0  0  0  0  0  0  0
   11.6484  -11.8212   22.6817 C   0  0  0  0  0  0  0  0  0  0  0  0
   21.9724  -14.9597   24.6331 C   0  0  0  0  0  0  0  0  0  0  0  0
   12.0807  -10.4868   22.8072 C   0  0  0  0  0  0  0  0  0  0  0  0
   20.6559  -15.4473   24.5109 C   0  0  0  0  0  0  0  0  0  0  0  0
   13.1054   -9.9983   21.9692 C   0  0  0  0  0  0  0  0  0  0  0  0
   11.4642   -9.6050   23.8704 C   0  0  0  0  0  0  0  0  0  0  0  0
   18.3489  -11.1263   21.6890 H   0  0  0  0  0  0  0  0  0  0  0  0
   15.9603  -13.6624   23.5243 H   0  0  0  0  0  0  0  0  0  0  0  0
   15.5325  -12.4007   19.2246 H   0  0  0  0  0  0  0  0  0  0  0  0
   18.9508  -12.2841   18.9622 H   0  0  0  0  0  0  0  0  0  0  0  0
   19.7172  -10.9061   19.8227 H   0  0  0  0  0  0  0  0  0  0  0  0
   20.9140  -13.3590   19.6375 H   0  0  0  0  0  0  0  0  0  0  0  0
   21.1232  -12.2973   21.0712 H   0  0  0  0  0  0  0  0  0  0  0  0
   16.5466  -16.8369   23.4483 H   0  0  0  0  0  0  0  0  0  0  0  0
   15.6990  -15.4462   23.5671 H   0  0  0  0  0  0  0  0  0  0  0  0
   17.4640  -14.4235   25.1716 H   0  0  0  0  0  0  0  0  0  0  0  0
   18.0606  -16.1139   25.0553 H   0  0  0  0  0  0  0  0  0  0  0  0
   14.7160   -9.2352   20.0427 H   0  0  0  0  0  0  0  0  0  0  0  0
   14.6688  -10.7688   19.1086 H   0  0  0  0  0  0  0  0  0  0  0  0
   20.2149  -14.0928   22.2312 H   0  0  0  0  0  0  0  0  0  0  0  0
   19.4672  -14.7893   20.7539 H   0  0  0  0  0  0  0  0  0  0  0  0
   18.9708  -12.6853   25.5848 H   0  0  0  0  0  0  0  0  0  0  0  0
   13.7375  -12.8428   20.1814 H   0  0  0  0  0  0  0  0  0  0  0  0
   21.2838  -11.8145   25.7690 H   0  0  0  0  0  0  0  0  0  0  0  0
   11.9182  -13.6961   21.6444 H   0  0  0  0  0  0  0  0  0  0  0  0
   23.2078  -13.2594   25.1361 H   0  0  0  0  0  0  0  0  0  0  0  0
   10.8553  -12.1925   23.3139 H   0  0  0  0  0  0  0  0  0  0  0  0
   22.8086  -15.5993   24.3921 H   0  0  0  0  0  0  0  0  0  0  0  0
   20.4843  -16.4600   24.1771 H   0  0  0  0  0  0  0  0  0  0  0  0
   13.4315   -8.9726   22.0580 H   0  0  0  0  0  0  0  0  0  0  0  0
   12.0358   -9.7025   24.8051 H   0  0  0  0  0  0  0  0  0  0  0  0
   11.4854   -8.5575   23.5354 H   0  0  0  0  0  0  0  0  0  0  0  0
   10.4227   -9.9135   24.0438 H   0  0  0  0  0  0  0  0  0  0  0  0
  1  2  1  0  0  0  0
  1 14  1  0  0  0  0
  1  3  1  0  0  0  0
  2  5  1  0  0  0  0
  2  7  1  0  0  0  0
  3  8  2  0  0  0  0
  3  4  1  0  0  0  0
  5  6  1  0  0  0  0
  5  9  2  0  0  0  0
  7 10  1  0  0  0  0
  8 11  1  0  0  0  0
  8 12  1  0  0  0  0
  9 13  1  0  0  0  0
 10 14  1  0  0  0  0
 12 15  1  0  0  0  0
 13 16  1  0  0  0  0
 15 17  2  0  0  0  0
 15 25  1  0  0  0  0
 16 18  2  0  0  0  0
 16 26  1  0  0  0  0
 17 19  1  0  0  0  0
 18 20  1  0  0  0  0
 19 21  2  0  0  0  0
 20 22  2  0  0  0  0
 21 23  1  0  0  0  0
 22 24  1  0  0  0  0
 23 25  2  0  0  0  0
 24 26  2  0  0  0  0
 24 27  1  0  0  0  0
  2 28  1  0  0  0  0
  4 29  1  0  0  0  0
  6 30  1  0  0  0  0
  7 31  1  0  0  0  0
  7 32  1  0  0  0  0
 10 33  1  0  0  0  0
 10 34  1  0  0  0  0
 11 35  1  0  0  0  0
 11 36  1  0  0  0  0
 12 37  1  0  0  0  0
 12 38  1  0  0  0  0
 13 39  1  0  0  0  0
 13 40  1  0  0  0  0
 14 41  1  0  0  0  0
 14 42  1  0  0  0  0
 17 43  1  0  0  0  0
 18 44  1  0  0  0  0
 19 45  1  0  0  0  0
 20 46  1  0  0  0  0
 21 47  1  0  0  0  0
 22 48  1  0  0  0  0
 23 49  1  0  0  0  0
 25 50  1  0  0  0  0
 26 51  1  0  0  0  0
 27 52  1  0  0  0  0
 27 53  1  0  0  0  0
 27 54  1  0  0  0  0
M  END
> <r_user_dG.exp>
-8.32

$$$$
