1a
  -OEChem-05192314073D
 Structure written by MMmdl.
 51 53  0     1  0  0  0  0  0999 V2000
   18.3477  -13.2695   21.7072 N   0  0  0  0  0  0  0  0  0  0  0  0
   18.1765  -11.9782   21.0132 C   0  0  2  0  0  0  0  0  0  0  0  0
   17.4561  -13.7932   22.5862 C   0  0  0  0  0  0  0  0  0  0  0  0
   16.4566  -13.1696   22.9501 O   0  0  0  0  0  0  0  0  0  0  0  0
   16.7891  -11.7919   20.3607 C   0  0  0  0  0  0  0  0  0  0  0  0
   16.3129  -12.6820   19.6534 O   0  0  0  0  0  0  0  0  0  0  0  0
   19.2877  -11.9490   19.9528 C   0  0  0  0  0  0  0  0  0  0  0  0
   17.6818  -15.1940   23.1883 C   0  0  2  0  0  0  0  0  0  0  0  0
   16.1564  -10.6408   20.6065 N   0  0  0  0  0  0  0  0  0  0  0  0
   20.3708  -12.8696   20.4764 C   0  0  0  0  0  0  0  0  0  0  0  0
   16.4280  -15.9626   23.1045 N   0  0  0  0  0  0  0  0  0  0  0  0
   18.1548  -15.1270   24.6591 C   0  0  0  0  0  0  0  0  0  0  0  0
   14.8280  -10.2760   20.1411 C   0  0  0  0  0  0  0  0  0  0  0  0
   19.6283  -13.8844   21.3391 C   0  0  0  0  0  0  0  0  0  0  0  0
   19.5750  -14.6212   24.8423 C   0  0  0  0  0  0  0  0  0  0  0  0
   13.7200  -10.6282   21.1183 C   0  0  0  0  0  0  0  0  0  0  0  0
   20.6767  -15.4490   24.5360 C   0  0  0  0  0  0  0  0  0  0  0  0
   13.2089  -11.9431   21.1732 C   0  0  0  0  0  0  0  0  0  0  0  0
   21.9890  -14.9496   24.6571 C   0  0  0  0  0  0  0  0  0  0  0  0
   12.1531  -12.2553   22.0546 C   0  0  0  0  0  0  0  0  0  0  0  0
   22.2038  -13.6243   25.0836 C   0  0  0  0  0  0  0  0  0  0  0  0
   11.6074  -11.2561   22.8870 C   0  0  0  0  0  0  0  0  0  0  0  0
   21.1084  -12.8096   25.4224 C   0  0  0  0  0  0  0  0  0  0  0  0
   12.1303   -9.9484   22.8494 C   0  0  0  0  0  0  0  0  0  0  0  0
   19.8037  -13.3135   25.3100 C   0  0  0  0  0  0  0  0  0  0  0  0
   13.1834   -9.6356   21.9677 C   0  0  0  0  0  0  0  0  0  0  0  0
   11.6288   -8.9896   23.6636 F   0  0  0  0  0  0  0  0  0  0  0  0
   18.3441  -11.1546   21.7229 H   0  0  0  0  0  0  0  0  0  0  0  0
   18.9072  -12.3132   18.9871 H   0  0  0  0  0  0  0  0  0  0  0  0
   19.6769  -10.9273   19.8318 H   0  0  0  0  0  0  0  0  0  0  0  0
   18.4587  -15.7030   22.5989 H   0  0  0  0  0  0  0  0  0  0  0  0
   16.6423   -9.9668   21.1629 H   0  0  0  0  0  0  0  0  0  0  0  0
   20.8892  -13.3712   19.6459 H   0  0  0  0  0  0  0  0  0  0  0  0
   21.1004  -12.3080   21.0783 H   0  0  0  0  0  0  0  0  0  0  0  0
   16.5679  -16.8730   23.4938 H   0  0  0  0  0  0  0  0  0  0  0  0
   15.7115  -15.4881   23.6158 H   0  0  0  0  0  0  0  0  0  0  0  0
   17.4777  -14.4555   25.2073 H   0  0  0  0  0  0  0  0  0  0  0  0
   18.0928  -16.1388   25.0862 H   0  0  0  0  0  0  0  0  0  0  0  0
   14.8066   -9.1898   19.9688 H   0  0  0  0  0  0  0  0  0  0  0  0
   14.6355  -10.8013   19.1940 H   0  0  0  0  0  0  0  0  0  0  0  0
   20.2125  -14.1131   22.2427 H   0  0  0  0  0  0  0  0  0  0  0  0
   19.4547  -14.8100   20.7707 H   0  0  0  0  0  0  0  0  0  0  0  0
   20.5139  -16.4653   24.2088 H   0  0  0  0  0  0  0  0  0  0  0  0
   13.6270  -12.7110   20.5393 H   0  0  0  0  0  0  0  0  0  0  0  0
   22.8311  -15.5838   24.4226 H   0  0  0  0  0  0  0  0  0  0  0  0
   11.7618  -13.2612   22.0922 H   0  0  0  0  0  0  0  0  0  0  0  0
   23.2087  -13.2341   25.1504 H   0  0  0  0  0  0  0  0  0  0  0  0
   10.7901  -11.4930   23.5521 H   0  0  0  0  0  0  0  0  0  0  0  0
   21.2710  -11.7994   25.7680 H   0  0  0  0  0  0  0  0  0  0  0  0
   18.9654  -12.6908   25.5855 H   0  0  0  0  0  0  0  0  0  0  0  0
   13.5822   -8.6323   21.9411 H   0  0  0  0  0  0  0  0  0  0  0  0
  1  2  1  0  0  0  0
  1 14  1  0  0  0  0
  1  3  1  0  0  0  0
  2  5  1  0  0  0  0
  2  7  1  0  0  0  0
  3  8  1  0  0  0  0
  3  4  2  0  0  0  0
  5  6  2  0  0  0  0
  5  9  1  0  0  0  0
  7 10  1  0  0  0  0
  8 11  1  0  0  0  0
  8 12  1  0  0  0  0
  9 13  1  0  0  0  0
 10 14  1  0  0  0  0
 12 15  1  0  0  0  0
 13 16  1  0  0  0  0
 15 17  2  0  0  0  0
 15 25  1  0  0  0  0
 16 18  2  0  0  0  0
 16 26  1  0  0  0  0
 17 19  1  0  0  0  0
 18 20  1  0  0  0  0
 19 21  2  0  0  0  0
 20 22  2  0  0  0  0
 21 23  1  0  0  0  0
 22 24  1  0  0  0  0
 23 25  2  0  0  0  0
 24 26  2  0  0  0  0
 24 27  1  0  0  0  0
  2 28  1  0  0  0  0
  7 29  1  0  0  0  0
  7 30  1  0  0  0  0
  8 31  1  0  0  0  0
  9 32  1  0  0  0  0
 10 33  1  0  0  0  0
 10 34  1  0  0  0  0
 11 35  1  0  0  0  0
 11 36  1  0  0  0  0
 12 37  1  0  0  0  0
 12 38  1  0  0  0  0
 13 39  1  0  0  0  0
 13 40  1  0  0  0  0
 14 41  1  0  0  0  0
 14 42  1  0  0  0  0
 17 43  1  0  0  0  0
 18 44  1  0  0  0  0
 19 45  1  0  0  0  0
 20 46  1  0  0  0  0
 21 47  1  0  0  0  0
 22 48  1  0  0  0  0
 23 49  1  0  0  0  0
 25 50  1  0  0  0  0
 26 51  1  0  0  0  0
M  END
> <r_user_dG.exp>
-7.48

$$$$
1a
  -OEChem-05192314073D
 Structure written by MMmdl.
 51 53  0     1  0  0  0  0  0999 V2000
   18.3477  -13.2695   21.7072 N   0  0  0  0  0  0  0  0  0  0  0  0
   18.1765  -11.9782   21.0132 C   0  0  2  0  0  0  0  0  0  0  0  0
   17.4561  -13.7932   22.5862 C   0  0  0  0  0  0  0  0  0  0  0  0
   16.4566  -13.1696   22.9501 O   0  0  0  0  0  0  0  0  0  0  0  0
   16.7891  -11.7919   20.3607 C   0  0  0  0  0  0  0  0  0  0  0  0
   16.3129  -12.6820   19.6534 O   0  0  0  0  0  0  0  0  0  0  0  0
   19.2877  -11.9490   19.9528 C   0  0  0  0  0  0  0  0  0  0  0  0
   17.6818  -15.1940   23.1883 C   0  0  2  0  0  0  0  0  0  0  0  0
   16.1564  -10.6408   20.6065 N   0  0  0  0  0  0  0  0  0  0  0  0
   20.3708  -12.8696   20.4764 C   0  0  0  0  0  0  0  0  0  0  0  0
   16.4280  -15.9626   23.1045 N   0  0  0  0  0  0  0  0  0  0  0  0
   18.1548  -15.1270   24.6591 C   0  0  0  0  0  0  0  0  0  0  0  0
   14.8280  -10.2760   20.1411 C   0  0  0  0  0  0  0  0  0  0  0  0
   19.6283  -13.8844   21.3391 C   0  0  0  0  0  0  0  0  0  0  0  0
   19.5750  -14.6212   24.8423 C   0  0  0  0  0  0  0  0  0  0  0  0
   13.7200  -10.6282   21.1183 C   0  0  0  0  0  0  0  0  0  0  0  0
   20.6767  -15.4490   24.5360 C   0  0  0  0  0  0  0  0  0  0  0  0
   13.2089  -11.9431   21.1732 C   0  0  0  0  0  0  0  0  0  0  0  0
   21.9890  -14.9496   24.6571 C   0  0  0  0  0  0  0  0  0  0  0  0
   12.1531  -12.2553   22.0546 C   0  0  0  0  0  0  0  0  0  0  0  0
   22.2038  -13.6243   25.0836 C   0  0  0  0  0  0  0  0  0  0  0  0
   11.6074  -11.2561   22.8870 C   0  0  0  0  0  0  0  0  0  0  0  0
   21.1084  -12.8096   25.4224 C   0  0  0  0  0  0  0  0  0  0  0  0
   12.1303   -9.9484   22.8494 C   0  0  0  0  0  0  0  0  0  0  0  0
   19.8037  -13.3135   25.3100 C   0  0  0  0  0  0  0  0  0  0  0  0
   13.1834   -9.6356   21.9677 C   0  0  0  0  0  0  0  0  0  0  0  0
   11.6288   -8.9896   23.6636 F   0  0  0  0  0  0  0  0  0  0  0  0
   18.3441  -11.1546   21.7229 H   0  0  0  0  0  0  0  0  0  0  0  0
   15.4610  -12.4103   19.3324 H   0  0  0  0  0  0  0  0  0  0  0  0
   18.9072  -12.3132   18.9871 H   0  0  0  0  0  0  0  0  0  0  0  0
   19.6769  -10.9273   19.8318 H   0  0  0  0  0  0  0  0  0  0  0  0
   18.4587  -15.7030   22.5989 H   0  0  0  0  0  0  0  0  0  0  0  0
   20.8892  -13.3712   19.6459 H   0  0  0  0  0  0  0  0  0  0  0  0
   21.1004  -12.3080   21.0783 H   0  0  0  0  0  0  0  0  0  0  0  0
   16.5679  -16.8730   23.4938 H   0  0  0  0  0  0  0  0  0  0  0  0
   15.7115  -15.4881   23.6158 H   0  0  0  0  0  0  0  0  0  0  0  0
   17.4777  -14.4555   25.2073 H   0  0  0  0  0  0  0  0  0  0  0  0
   18.0928  -16.1388   25.0862 H   0  0  0  0  0  0  0  0  0  0  0  0
   14.8066   -9.1898   19.9688 H   0  0  0  0  0  0  0  0  0  0  0  0
   14.6355  -10.8013   19.1940 H   0  0  0  0  0  0  0  0  0  0  0  0
   20.2125  -14.1131   22.2427 H   0  0  0  0  0  0  0  0  0  0  0  0
   19.4547  -14.8100   20.7707 H   0  0  0  0  0  0  0  0  0  0  0  0
   20.5139  -16.4653   24.2088 H   0  0  0  0  0  0  0  0  0  0  0  0
   13.6270  -12.7110   20.5393 H   0  0  0  0  0  0  0  0  0  0  0  0
   22.8311  -15.5838   24.4226 H   0  0  0  0  0  0  0  0  0  0  0  0
   11.7618  -13.2612   22.0922 H   0  0  0  0  0  0  0  0  0  0  0  0
   23.2087  -13.2341   25.1504 H   0  0  0  0  0  0  0  0  0  0  0  0
   10.7901  -11.4930   23.5521 H   0  0  0  0  0  0  0  0  0  0  0  0
   21.2710  -11.7994   25.7680 H   0  0  0  0  0  0  0  0  0  0  0  0
   18.9654  -12.6908   25.5855 H   0  0  0  0  0  0  0  0  0  0  0  0
   13.5822   -8.6323   21.9411 H   0  0  0  0  0  0  0  0  0  0  0  0
  1  2  1  0  0  0  0
  1 14  1  0  0  0  0
  1  3  1  0  0  0  0
  2  5  1  0  0  0  0
  2  7  1  0  0  0  0
  3  8  1  0  0  0  0
  3  4  2  0  0  0  0
  5  6  1  0  0  0  0
  5  9  2  0  0  0  0
  7 10  1  0  0  0  0
  8 11  1  0  0  0  0
  8 12  1  0  0  0  0
  9 13  1  0  0  0  0
 10 14  1  0  0  0  0
 12 15  1  0  0  0  0
 13 16  1  0  0  0  0
 15 17  2  0  0  0  0
 15 25  1  0  0  0  0
 16 18  2  0  0  0  0
 16 26  1  0  0  0  0
 17 19  1  0  0  0  0
 18 20  1  0  0  0  0
 19 21  2  0  0  0  0
 20 22  2  0  0  0  0
 21 23  1  0  0  0  0
 22 24  1  0  0  0  0
 23 25  2  0  0  0  0
 24 26  2  0  0  0  0
 24 27  1  0  0  0  0
  2 28  1  0  0  0  0
  6 29  1  0  0  0  0
  7 30  1  0  0  0  0
  7 31  1  0  0  0  0
  8 32  1  0  0  0  0
 10 33  1  0  0  0  0
 10 34  1  0  0  0  0
 11 35  1  0  0  0  0
 11 36  1  0  0  0  0
 12 37  1  0  0  0  0
 12 38  1  0  0  0  0
 13 39  1  0  0  0  0
 13 40  1  0  0  0  0
 14 41  1  0  0  0  0
 14 42  1  0  0  0  0
 17 43  1  0  0  0  0
 18 44  1  0  0  0  0
 19 45  1  0  0  0  0
 20 46  1  0  0  0  0
 21 47  1  0  0  0  0
 22 48  1  0  0  0  0
 23 49  1  0  0  0  0
 25 50  1  0  0  0  0
 26 51  1  0  0  0  0
M  END
> <r_user_dG.exp>
-7.48

$$$$
1a
  -OEChem-05192314073D
 Structure written by MMmdl.
 51 53  0     1  0  0  0  0  0999 V2000
   18.3477  -13.2695   21.7072 N   0  0  0  0  0  0  0  0  0  0  0  0
   18.1765  -11.9782   21.0132 C   0  0  2  0  0  0  0  0  0  0  0  0
   17.4561  -13.7932   22.5862 C   0  0  0  0  0  0  0  0  0  0  0  0
   16.4566  -13.1696   22.9501 O   0  0  0  0  0  0  0  0  0  0  0  0
   16.7891  -11.7919   20.3607 C   0  0  0  0  0  0  0  0  0  0  0  0
   16.3129  -12.6820   19.6534 O   0  0  0  0  0  0  0  0  0  0  0  0
   19.2877  -11.9490   19.9528 C   0  0  0  0  0  0  0  0  0  0  0  0
   17.6818  -15.1940   23.1883 C   0  0  2  0  0  0  0  0  0  0  0  0
   16.1564  -10.6408   20.6065 N   0  0  0  0  0  0  0  0  0  0  0  0
   20.3708  -12.8696   20.4764 C   0  0  0  0  0  0  0  0  0  0  0  0
   16.4280  -15.9626   23.1045 N   0  0  0  0  0  0  0  0  0  0  0  0
   18.1548  -15.1270   24.6591 C   0  0  0  0  0  0  0  0  0  0  0  0
   14.8280  -10.2760   20.1411 C   0  0  0  0  0  0  0  0  0  0  0  0
   19.6283  -13.8844   21.3391 C   0  0  0  0  0  0  0  0  0  0  0  0
   19.5750  -14.6212   24.8423 C   0  0  0  0  0  0  0  0  0  0  0  0
   13.7200  -10.6282   21.1183 C   0  0  0  0  0  0  0  0  0  0  0  0
   20.6767  -15.4490   24.5360 C   0  0  0  0  0  0  0  0  0  0  0  0
   13.2089  -11.9431   21.1732 C   0  0  0  0  0  0  0  0  0  0  0  0
   21.9890  -14.9496   24.6571 C   0  0  0  0  0  0  0  0  0  0  0  0
   12.1531  -12.2553   22.0546 C   0  0  0  0  0  0  0  0  0  0  0  0
   22.2038  -13.6243   25.0836 C   0  0  0  0  0  0  0  0  0  0  0  0
   11.6074  -11.2561   22.8870 C   0  0  0  0  0  0  0  0  0  0  0  0
   21.1084  -12.8096   25.4224 C   0  0  0  0  0  0  0  0  0  0  0  0
   12.1303   -9.9484   22.8494 C   0  0  0  0  0  0  0  0  0  0  0  0
   19.8037  -13.3135   25.3100 C   0  0  0  0  0  0  0  0  0  0  0  0
   13.1834   -9.6356   21.9677 C   0  0  0  0  0  0  0  0  0  0  0  0
   11.6288   -8.9896   23.6636 F   0  0  0  0  0  0  0  0  0  0  0  0
   18.3441  -11.1546   21.7229 H   0  0  0  0  0  0  0  0  0  0  0  0
   16.8867  -14.2355   21.7554 H   0  0  0  0  0  0  0  0  0  0  0  0
   15.9585  -13.6983   23.5624 H   0  0  0  0  0  0  0  0  0  0  0  0
   18.9072  -12.3132   18.9871 H   0  0  0  0  0  0  0  0  0  0  0  0
   19.6769  -10.9273   19.8318 H   0  0  0  0  0  0  0  0  0  0  0  0
   16.6423   -9.9668   21.1629 H   0  0  0  0  0  0  0  0  0  0  0  0
   20.8892  -13.3712   19.6459 H   0  0  0  0  0  0  0  0  0  0  0  0
   21.1004  -12.3080   21.0783 H   0  0  0  0  0  0  0  0  0  0  0  0
   16.1278  -16.2886   24.0009 H   0  0  0  0  0  0  0  0  0  0  0  0
   17.4777  -14.4555   25.2073 H   0  0  0  0  0  0  0  0  0  0  0  0
   18.0928  -16.1388   25.0862 H   0  0  0  0  0  0  0  0  0  0  0  0
   14.8066   -9.1898   19.9688 H   0  0  0  0  0  0  0  0  0  0  0  0
   14.6355  -10.8013   19.1940 H   0  0  0  0  0  0  0  0  0  0  0  0
   20.2125  -14.1131   22.2427 H   0  0  0  0  0  0  0  0  0  0  0  0
   19.4547  -14.8100   20.7707 H   0  0  0  0  0  0  0  0  0  0  0  0
   20.5139  -16.4653   24.2088 H   0  0  0  0  0  0  0  0  0  0  0  0
   13.6270  -12.7110   20.5393 H   0  0  0  0  0  0  0  0  0  0  0  0
   22.8311  -15.5838   24.4226 H   0  0  0  0  0  0  0  0  0  0  0  0
   11.7618  -13.2612   22.0922 H   0  0  0  0  0  0  0  0  0  0  0  0
   23.2087  -13.2341   25.1504 H   0  0  0  0  0  0  0  0  0  0  0  0
   10.7901  -11.4930   23.5521 H   0  0  0  0  0  0  0  0  0  0  0  0
   21.2710  -11.7994   25.7680 H   0  0  0  0  0  0  0  0  0  0  0  0
   18.9654  -12.6908   25.5855 H   0  0  0  0  0  0  0  0  0  0  0  0
   13.5822   -8.6323   21.9411 H   0  0  0  0  0  0  0  0  0  0  0  0
  1  2  1  0  0  0  0
  1 14  1  0  0  0  0
  1  3  1  0  0  0  0
  2  5  1  0  0  0  0
  2  7  1  0  0  0  0
  3  8  1  0  0  0  0
  3  4  1  0  0  0  0
  5  6  2  0  0  0  0
  5  9  1  0  0  0  0
  7 10  1  0  0  0  0
  8 11  2  0  0  0  0
  8 12  1  0  0  0  0
  9 13  1  0  0  0  0
 10 14  1  0  0  0  0
 12 15  1  0  0  0  0
 13 16  1  0  0  0  0
 15 17  2  0  0  0  0
 15 25  1  0  0  0  0
 16 18  2  0  0  0  0
 16 26  1  0  0  0  0
 17 19  1  0  0  0  0
 18 20  1  0  0  0  0
 19 21  2  0  0  0  0
 20 22  2  0  0  0  0
 21 23  1  0  0  0  0
 22 24  1  0  0  0  0
 23 25  2  0  0  0  0
 24 26  2  0  0  0  0
 24 27  1  0  0  0  0
  2 28  1  0  0  0  0
  3 29  1  0  0  0  0
  4 30  1  0  0  0  0
  7 31  1  0  0  0  0
  7 32  1  0  0  0  0
  9 33  1  0  0  0  0
 10 34  1  0  0  0  0
 10 35  1  0  0  0  0
 11 36  1  0  0  0  0
 12 37  1  0  0  0  0
 12 38  1  0  0  0  0
 13 39  1  0  0  0  0
 13 40  1  0  0  0  0
 14 41  1  0  0  0  0
 14 42  1  0  0  0  0
 17 43  1  0  0  0  0
 18 44  1  0  0  0  0
 19 45  1  0  0  0  0
 20 46  1  0  0  0  0
 21 47  1  0  0  0  0
 22 48  1  0  0  0  0
 23 49  1  0  0  0  0
 25 50  1  0  0  0  0
 26 51  1  0  0  0  0
M  END
> <r_user_dG.exp>
-7.48

$$$$
1a
  -OEChem-05192314073D
 Structure written by MMmdl.
 51 53  0     1  0  0  0  0  0999 V2000
   18.3477  -13.2695   21.7072 N   0  0  0  0  0  0  0  0  0  0  0  0
   18.1765  -11.9782   21.0132 C   0  0  2  0  0  0  0  0  0  0  0  0
   17.4561  -13.7932   22.5862 C   0  0  0  0  0  0  0  0  0  0  0  0
   16.4566  -13.1696   22.9501 O   0  0  0  0  0  0  0  0  0  0  0  0
   16.7891  -11.7919   20.3607 C   0  0  0  0  0  0  0  0  0  0  0  0
   16.3129  -12.6820   19.6534 O   0  0  0  0  0  0  0  0  0  0  0  0
   19.2877  -11.9490   19.9528 C   0  0  0  0  0  0  0  0  0  0  0  0
   17.6818  -15.1940   23.1883 C   0  0  2  0  0  0  0  0  0  0  0  0
   16.1564  -10.6408   20.6065 N   0  0  0  0  0  0  0  0  0  0  0  0
   20.3708  -12.8696   20.4764 C   0  0  0  0  0  0  0  0  0  0  0  0
   16.4280  -15.9626   23.1045 N   0  0  0  0  0  0  0  0  0  0  0  0
   18.1548  -15.1270   24.6591 C   0  0  0  0  0  0  0  0  0  0  0  0
   14.8280  -10.2760   20.1411 C   0  0  0  0  0  0  0  0  0  0  0  0
   19.6283  -13.8844   21.3391 C   0  0  0  0  0  0  0  0  0  0  0  0
   19.5750  -14.6212   24.8423 C   0  0  0  0  0  0  0  0  0  0  0  0
   13.7200  -10.6282   21.1183 C   0  0  0  0  0  0  0  0  0  0  0  0
   20.6767  -15.4490   24.5360 C   0  0  0  0  0  0  0  0  0  0  0  0
   13.2089  -11.9431   21.1732 C   0  0  0  0  0  0  0  0  0  0  0  0
   21.9890  -14.9496   24.6571 C   0  0  0  0  0  0  0  0  0  0  0  0
   12.1531  -12.2553   22.0546 C   0  0  0  0  0  0  0  0  0  0  0  0
   22.2038  -13.6243   25.0836 C   0  0  0  0  0  0  0  0  0  0  0  0
   11.6074  -11.2561   22.8870 C   0  0  0  0  0  0  0  0  0  0  0  0
   21.1084  -12.8096   25.4224 C   0  0  0  0  0  0  0  0  0  0  0  0
   12.1303   -9.9484   22.8494 C   0  0  0  0  0  0  0  0  0  0  0  0
   19.8037  -13.3135   25.3100 C   0  0  0  0  0  0  0  0  0  0  0  0
   13.1834   -9.6356   21.9677 C   0  0  0  0  0  0  0  0  0  0  0  0
   11.6288   -8.9896   23.6636 F   0  0  0  0  0  0  0  0  0  0  0  0
   18.3441  -11.1546   21.7229 H   0  0  0  0  0  0  0  0  0  0  0  0
   16.8867  -14.2355   21.7554 H   0  0  0  0  0  0  0  0  0  0  0  0
   15.9585  -13.6983   23.5624 H   0  0  0  0  0  0  0  0  0  0  0  0
   15.4610  -12.4103   19.3324 H   0  0  0  0  0  0  0  0  0  0  0  0
   18.9072  -12.3132   18.9871 H   0  0  0  0  0  0  0  0  0  0  0  0
   19.6769  -10.9273   19.8318 H   0  0  0  0  0  0  0  0  0  0  0  0
   20.8892  -13.3712   19.6459 H   0  0  0  0  0  0  0  0  0  0  0  0
   21.1004  -12.3080   21.0783 H   0  0  0  0  0  0  0  0  0  0  0  0
   16.1278  -16.2886   24.0009 H   0  0  0  0  0  0  0  0  0  0  0  0
   17.4777  -14.4555   25.2073 H   0  0  0  0  0  0  0  0  0  0  0  0
   18.0928  -16.1388   25.0862 H   0  0  0  0  0  0  0  0  0  0  0  0
   14.8066   -9.1898   19.9688 H   0  0  0  0  0  0  0  0  0  0  0  0
   14.6355  -10.8013   19.1940 H   0  0  0  0  0  0  0  0  0  0  0  0
   20.2125  -14.1131   22.2427 H   0  0  0  0  0  0  0  0  0  0  0  0
   19.4547  -14.8100   20.7707 H   0  0  0  0  0  0  0  0  0  0  0  0
   20.5139  -16.4653   24.2088 H   0  0  0  0  0  0  0  0  0  0  0  0
   13.6270  -12.7110   20.5393 H   0  0  0  0  0  0  0  0  0  0  0  0
   22.8311  -15.5838   24.4226 H   0  0  0  0  0  0  0  0  0  0  0  0
   11.7618  -13.2612   22.0922 H   0  0  0  0  0  0  0  0  0  0  0  0
   23.2087  -13.2341   25.1504 H   0  0  0  0  0  0  0  0  0  0  0  0
   10.7901  -11.4930   23.5521 H   0  0  0  0  0  0  0  0  0  0  0  0
   21.2710  -11.7994   25.7680 H   0  0  0  0  0  0  0  0  0  0  0  0
   18.9654  -12.6908   25.5855 H   0  0  0  0  0  0  0  0  0  0  0  0
   13.5822   -8.6323   21.9411 H   0  0  0  0  0  0  0  0  0  0  0  0
  1  2  1  0  0  0  0
  1 14  1  0  0  0  0
  1  3  1  0  0  0  0
  2  5  1  0  0  0  0
  2  7  1  0  0  0  0
  3  8  1  0  0  0  0
  3  4  1  0  0  0  0
  5  6  1  0  0  0  0
  5  9  2  0  0  0  0
  7 10  1  0  0  0  0
  8 11  2  0  0  0  0
  8 12  1  0  0  0  0
  9 13  1  0  0  0  0
 10 14  1  0  0  0  0
 12 15  1  0  0  0  0
 13 16  1  0  0  0  0
 15 17  2  0  0  0  0
 15 25  1  0  0  0  0
 16 18  2  0  0  0  0
 16 26  1  0  0  0  0
 17 19  1  0  0  0  0
 18 20  1  0  0  0  0
 19 21  2  0  0  0  0
 20 22  2  0  0  0  0
 21 23  1  0  0  0  0
 22 24  1  0  0  0  0
 23 25  2  0  0  0  0
 24 26  2  0  0  0  0
 24 27  1  0  0  0  0
  2 28  1  0  0  0  0
  3 29  1  0  0  0  0
  4 30  1  0  0  0  0
  6 31  1  0  0  0  0
  7 32  1  0  0  0  0
  7 33  1  0  0  0  0
 10 34  1  0  0  0  0
 10 35  1  0  0  0  0
 11 36  1  0  0  0  0
 12 37  1  0  0  0  0
 12 38  1  0  0  0  0
 13 39  1  0  0  0  0
 13 40  1  0  0  0  0
 14 41  1  0  0  0  0
 14 42  1  0  0  0  0
 17 43  1  0  0  0  0
 18 44  1  0  0  0  0
 19 45  1  0  0  0  0
 20 46  1  0  0  0  0
 21 47  1  0  0  0  0
 22 48  1  0  0  0  0
 23 49  1  0  0  0  0
 25 50  1  0  0  0  0
 26 51  1  0  0  0  0
M  END
> <r_user_dG.exp>
-7.48

$$$$
1a
  -OEChem-05192314073D
 Structure written by MMmdl.
 51 53  0     1  0  0  0  0  0999 V2000
   18.3477  -13.2695   21.7072 N   0  0  0  0  0  0  0  0  0  0  0  0
   18.1765  -11.9782   21.0132 C   0  0  2  0  0  0  0  0  0  0  0  0
   17.4561  -13.7932   22.5862 C   0  0  0  0  0  0  0  0  0  0  0  0
   16.4566  -13.1696   22.9501 O   0  0  0  0  0  0  0  0  0  0  0  0
   16.7891  -11.7919   20.3607 C   0  0  0  0  0  0  0  0  0  0  0  0
   16.3129  -12.6820   19.6534 O   0  0  0  0  0  0  0  0  0  0  0  0
   19.2877  -11.9490   19.9528 C   0  0  0  0  0  0  0  0  0  0  0  0
   17.6818  -15.1940   23.1883 C   0  0  2  0  0  0  0  0  0  0  0  0
   16.1564  -10.6408   20.6065 N   0  0  0  0  0  0  0  0  0  0  0  0
   20.3708  -12.8696   20.4764 C   0  0  0  0  0  0  0  0  0  0  0  0
   16.4280  -15.9626   23.1045 N   0  0  0  0  0  0  0  0  0  0  0  0
   18.1548  -15.1270   24.6591 C   0  0  0  0  0  0  0  0  0  0  0  0
   14.8280  -10.2760   20.1411 C   0  0  0  0  0  0  0  0  0  0  0  0
   19.6283  -13.8844   21.3391 C   0  0  0  0  0  0  0  0  0  0  0  0
   19.5750  -14.6212   24.8423 C   0  0  0  0  0  0  0  0  0  0  0  0
   13.7200  -10.6282   21.1183 C   0  0  0  0  0  0  0  0  0  0  0  0
   20.6767  -15.4490   24.5360 C   0  0  0  0  0  0  0  0  0  0  0  0
   13.2089  -11.9431   21.1732 C   0  0  0  0  0  0  0  0  0  0  0  0
   21.9890  -14.9496   24.6571 C   0  0  0  0  0  0  0  0  0  0  0  0
   12.1531  -12.2553   22.0546 C   0  0  0  0  0  0  0  0  0  0  0  0
   22.2038  -13.6243   25.0836 C   0  0  0  0  0  0  0  0  0  0  0  0
   11.6074  -11.2561   22.8870 C   0  0  0  0  0  0  0  0  0  0  0  0
   21.1084  -12.8096   25.4224 C   0  0  0  0  0  0  0  0  0  0  0  0
   12.1303   -9.9484   22.8494 C   0  0  0  0  0  0  0  0  0  0  0  0
   19.8037  -13.3135   25.3100 C   0  0  0  0  0  0  0  0  0  0  0  0
   13.1834   -9.6356   21.9677 C   0  0  0  0  0  0  0  0  0  0  0  0
   11.6288   -8.9896   23.6636 F   0  0  0  0  0  0  0  0  0  0  0  0
   18.3441  -11.1546   21.7229 H   0  0  0  0  0  0  0  0  0  0  0  0
   15.9585  -13.6983   23.5624 H   0  0  0  0  0  0  0  0  0  0  0  0
   18.9072  -12.3132   18.9871 H   0  0  0  0  0  0  0  0  0  0  0  0
   19.6769  -10.9273   19.8318 H   0  0  0  0  0  0  0  0  0  0  0  0
   16.6423   -9.9668   21.1629 H   0  0  0  0  0  0  0  0  0  0  0  0
   20.8892  -13.3712   19.6459 H   0  0  0  0  0  0  0  0  0  0  0  0
   21.1004  -12.3080   21.0783 H   0  0  0  0  0  0  0  0  0  0  0  0
   16.5679  -16.8730   23.4938 H   0  0  0  0  0  0  0  0  0  0  0  0
   15.7115  -15.4881   23.6158 H   0  0  0  0  0  0  0  0  0  0  0  0
   17.4777  -14.4555   25.2073 H   0  0  0  0  0  0  0  0  0  0  0  0
   18.0928  -16.1388   25.0862 H   0  0  0  0  0  0  0  0  0  0  0  0
   14.8066   -9.1898   19.9688 H   0  0  0  0  0  0  0  0  0  0  0  0
   14.6355  -10.8013   19.1940 H   0  0  0  0  0  0  0  0  0  0  0  0
   20.2125  -14.1131   22.2427 H   0  0  0  0  0  0  0  0  0  0  0  0
   19.4547  -14.8100   20.7707 H   0  0  0  0  0  0  0  0  0  0  0  0
   20.5139  -16.4653   24.2088 H   0  0  0  0  0  0  0  0  0  0  0  0
   13.6270  -12.7110   20.5393 H   0  0  0  0  0  0  0  0  0  0  0  0
   22.8311  -15.5838   24.4226 H   0  0  0  0  0  0  0  0  0  0  0  0
   11.7618  -13.2612   22.0922 H   0  0  0  0  0  0  0  0  0  0  0  0
   23.2087  -13.2341   25.1504 H   0  0  0  0  0  0  0  0  0  0  0  0
   10.7901  -11.4930   23.5521 H   0  0  0  0  0  0  0  0  0  0  0  0
   21.2710  -11.7994   25.7680 H   0  0  0  0  0  0  0  0  0  0  0  0
   18.9654  -12.6908   25.5855 H   0  0  0  0  0  0  0  0  0  0  0  0
   13.5822   -8.6323   21.9411 H   0  0  0  0  0  0  0  0  0  0  0  0
  1  2  1  0  0  0  0
  1 14  1  0  0  0  0
  1  3  1  0  0  0  0
  2  5  1  0  0  0  0
  2  7  1  0  0  0  0
  3  8  2  0  0  0  0
  3  4  1  0  0  0  0
  5  6  2  0  0  0  0
  5  9  1  0  0  0  0
  7 10  1  0  0  0  0
  8 11  1  0  0  0  0
  8 12  1  0  0  0  0
  9 13  1  0  0  0  0
 10 14  1  0  0  0  0
 12 15  1  0  0  0  0
 13 16  1  0  0  0  0
 15 17  2  0  0  0  0
 15 25  1  0  0  0  0
 16 18  2  0  0  0  0
 16 26  1  0  0  0  0
 17 19  1  0  0  0  0
 18 20  1  0  0  0  0
 19 21  2  0  0  0  0
 20 22  2  0  0  0  0
 21 23  1  0  0  0  0
 22 24  1  0  0  0  0
 23 25  2  0  0  0  0
 24 26  2  0  0  0  0
 24 27  1  0  0  0  0
  2 28  1  0  0  0  0
  4 29  1  0  0  0  0
  7 30  1  0  0  0  0
  7 31  1  0  0  0  0
  9 32  1  0  0  0  0
 10 33  1  0  0  0  0
 10 34  1  0  0  0  0
 11 35  1  0  0  0  0
 11 36  1  0  0  0  0
 12 37  1  0  0  0  0
 12 38  1  0  0  0  0
 13 39  1  0  0  0  0
 13 40  1  0  0  0  0
 14 41  1  0  0  0  0
 14 42  1  0  0  0  0
 17 43  1  0  0  0  0
 18 44  1  0  0  0  0
 19 45  1  0  0  0  0
 20 46  1  0  0  0  0
 21 47  1  0  0  0  0
 22 48  1  0  0  0  0
 23 49  1  0  0  0  0
 25 50  1  0  0  0  0
 26 51  1  0  0  0  0
M  END
> <r_user_dG.exp>
-7.48

$$$$
1a
  -OEChem-05192314073D
 Structure written by MMmdl.
 51 53  0     1  0  0  0  0  0999 V2000
   18.3477  -13.2695   21.7072 N   0  0  0  0  0  0  0  0  0  0  0  0
   18.1765  -11.9782   21.0132 C   0  0  2  0  0  0  0  0  0  0  0  0
   17.4561  -13.7932   22.5862 C   0  0  0  0  0  0  0  0  0  0  0  0
   16.4566  -13.1696   22.9501 O   0  0  0  0  0  0  0  0  0  0  0  0
   16.7891  -11.7919   20.3607 C   0  0  0  0  0  0  0  0  0  0  0  0
   16.3129  -12.6820   19.6534 O   0  0  0  0  0  0  0  0  0  0  0  0
   19.2877  -11.9490   19.9528 C   0  0  0  0  0  0  0  0  0  0  0  0
   17.6818  -15.1940   23.1883 C   0  0  2  0  0  0  0  0  0  0  0  0
   16.1564  -10.6408   20.6065 N   0  0  0  0  0  0  0  0  0  0  0  0
   20.3708  -12.8696   20.4764 C   0  0  0  0  0  0  0  0  0  0  0  0
   16.4280  -15.9626   23.1045 N   0  0  0  0  0  0  0  0  0  0  0  0
   18.1548  -15.1270   24.6591 C   0  0  0  0  0  0  0  0  0  0  0  0
   14.8280  -10.2760   20.1411 C   0  0  0  0  0  0  0  0  0  0  0  0
   19.6283  -13.8844   21.3391 C   0  0  0  0  0  0  0  0  0  0  0  0
   19.5750  -14.6212   24.8423 C   0  0  0  0  0  0  0  0  0  0  0  0
   13.7200  -10.6282   21.1183 C   0  0  0  0  0  0  0  0  0  0  0  0
   20.6767  -15.4490   24.5360 C   0  0  0  0  0  0  0  0  0  0  0  0
   13.2089  -11.9431   21.1732 C   0  0  0  0  0  0  0  0  0  0  0  0
   21.9890  -14.9496   24.6571 C   0  0  0  0  0  0  0  0  0  0  0  0
   12.1531  -12.2553   22.0546 C   0  0  0  0  0  0  0  0  0  0  0  0
   22.2038  -13.6243   25.0836 C   0  0  0  0  0  0  0  0  0  0  0  0
   11.6074  -11.2561   22.8870 C   0  0  0  0  0  0  0  0  0  0  0  0
   21.1084  -12.8096   25.4224 C   0  0  0  0  0  0  0  0  0  0  0  0
   12.1303   -9.9484   22.8494 C   0  0  0  0  0  0  0  0  0  0  0  0
   19.8037  -13.3135   25.3100 C   0  0  0  0  0  0  0  0  0  0  0  0
   13.1834   -9.6356   21.9677 C   0  0  0  0  0  0  0  0  0  0  0  0
   11.6288   -8.9896   23.6636 F   0  0  0  0  0  0  0  0  0  0  0  0
   18.3441  -11.1546   21.7229 H   0  0  0  0  0  0  0  0  0  0  0  0
   15.9585  -13.6983   23.5624 H   0  0  0  0  0  0  0  0  0  0  0  0
   15.4610  -12.4103   19.3324 H   0  0  0  0  0  0  0  0  0  0  0  0
   18.9072  -12.3132   18.9871 H   0  0  0  0  0  0  0  0  0  0  0  0
   19.6769  -10.9273   19.8318 H   0  0  0  0  0  0  0  0  0  0  0  0
   20.8892  -13.3712   19.6459 H   0  0  0  0  0  0  0  0  0  0  0  0
   21.1004  -12.3080   21.0783 H   0  0  0  0  0  0  0  0  0  0  0  0
   16.5679  -16.8730   23.4938 H   0  0  0  0  0  0  0  0  0  0  0  0
   15.7115  -15.4881   23.6158 H   0  0  0  0  0  0  0  0  0  0  0  0
   17.4777  -14.4555   25.2073 H   0  0  0  0  0  0  0  0  0  0  0  0
   18.0928  -16.1388   25.0862 H   0  0  0  0  0  0  0  0  0  0  0  0
   14.8066   -9.1898   19.9688 H   0  0  0  0  0  0  0  0  0  0  0  0
   14.6355  -10.8013   19.1940 H   0  0  0  0  0  0  0  0  0  0  0  0
   20.2125  -14.1131   22.2427 H   0  0  0  0  0  0  0  0  0  0  0  0
   19.4547  -14.8100   20.7707 H   0  0  0  0  0  0  0  0  0  0  0  0
   20.5139  -16.4653   24.2088 H   0  0  0  0  0  0  0  0  0  0  0  0
   13.6270  -12.7110   20.5393 H   0  0  0  0  0  0  0  0  0  0  0  0
   22.8311  -15.5838   24.4226 H   0  0  0  0  0  0  0  0  0  0  0  0
   11.7618  -13.2612   22.0922 H   0  0  0  0  0  0  0  0  0  0  0  0
   23.2087  -13.2341   25.1504 H   0  0  0  0  0  0  0  0  0  0  0  0
   10.7901  -11.4930   23.5521 H   0  0  0  0  0  0  0  0  0  0  0  0
   21.2710  -11.7994   25.7680 H   0  0  0  0  0  0  0  0  0  0  0  0
   18.9654  -12.6908   25.5855 H   0  0  0  0  0  0  0  0  0  0  0  0
   13.5822   -8.6323   21.9411 H   0  0  0  0  0  0  0  0  0  0  0  0
  1  2  1  0  0  0  0
  1 14  1  0  0  0  0
  1  3  1  0  0  0  0
  2  5  1  0  0  0  0
  2  7  1  0  0  0  0
  3  8  2  0  0  0  0
  3  4  1  0  0  0  0
  5  6  1  0  0  0  0
  5  9  2  0  0  0  0
  7 10  1  0  0  0  0
  8 11  1  0  0  0  0
  8 12  1  0  0  0  0
  9 13  1  0  0  0  0
 10 14  1  0  0  0  0
 12 15  1  0  0  0  0
 13 16  1  0  0  0  0
 15 17  2  0  0  0  0
 15 25  1  0  0  0  0
 16 18  2  0  0  0  0
 16 26  1  0  0  0  0
 17 19  1  0  0  0  0
 18 20  1  0  0  0  0
 19 21  2  0  0  0  0
 20 22  2  0  0  0  0
 21 23  1  0  0  0  0
 22 24  1  0  0  0  0
 23 25  2  0  0  0  0
 24 26  2  0  0  0  0
 24 27  1  0  0  0  0
  2 28  1  0  0  0  0
  4 29  1  0  0  0  0
  6 30  1  0  0  0  0
  7 31  1  0  0  0  0
  7 32  1  0  0  0  0
 10 33  1  0  0  0  0
 10 34  1  0  0  0  0
 11 35  1  0  0  0  0
 11 36  1  0  0  0  0
 12 37  1  0  0  0  0
 12 38  1  0  0  0  0
 13 39  1  0  0  0  0
 13 40  1  0  0  0  0
 14 41  1  0  0  0  0
 14 42  1  0  0  0  0
 17 43  1  0  0  0  0
 18 44  1  0  0  0  0
 19 45  1  0  0  0  0
 20 46  1  0  0  0  0
 21 47  1  0  0  0  0
 22 48  1  0  0  0  0
 23 49  1  0  0  0  0
 25 50  1  0  0  0  0
 26 51  1  0  0  0  0
M  END
> <r_user_dG.exp>
-7.48

$$$$
