22
  -OEChem-05192314073D
 Structure written by MMmdl.
 49 52  0     0  0  0  0  0  0999 V2000
    1.3901   29.1077    6.7935 C   0  0  0  0  0  0  0  0  0  0  0  0
   -1.6911   31.9130    8.0794 C   0  0  0  0  0  0  0  0  0  0  0  0
   -0.7437   26.3748    8.8319 C   0  0  0  0  0  0  0  0  0  0  0  0
   -1.3142   25.5567    9.9914 C   0  0  0  0  0  0  0  0  0  0  0  0
   -1.1214   24.0589    9.6854 C   0  0  0  0  0  0  0  0  0  0  0  0
   -1.5824   23.1795   10.8502 C   0  0  0  0  0  0  0  0  0  0  0  0
   -0.8551   23.5463   12.1491 C   0  0  0  0  0  0  0  0  0  0  0  0
   -1.0780   25.0277   12.4857 C   0  0  0  0  0  0  0  0  0  0  0  0
   -0.6321   25.9351   11.3273 C   0  0  0  0  0  0  0  0  0  0  0  0
    4.6903   25.7129    5.8380 C   0  0  0  0  0  0  0  0  0  0  0  0
    4.6667   25.1395    7.1233 C   0  0  0  0  0  0  0  0  0  0  0  0
    3.9496   25.7658    8.1576 C   0  0  0  0  0  0  0  0  0  0  0  0
    3.2460   26.9556    7.8985 C   0  0  0  0  0  0  0  0  0  0  0  0
    0.6302   28.2313    7.4508 N   0  0  0  0  0  0  0  0  0  0  0  0
   -0.4898   28.6252    8.0923 C   0  0  0  0  0  0  0  0  0  0  0  0
   -1.1796   27.7315    8.8832 O   0  0  0  0  0  0  0  0  0  0  0  0
   -0.8660   29.9818    8.0000 C   0  0  0  0  0  0  0  0  0  0  0  0
   -1.9251   30.7129    8.5212 N   0  0  0  0  0  0  0  0  0  0  0  0
   -0.5542   32.0464    7.3306 N   0  0  0  0  0  0  0  0  0  0  0  0
   -0.0249   30.7863    7.2610 C   0  0  0  0  0  0  0  0  0  0  0  0
    1.1172   30.4049    6.6113 N   0  0  0  0  0  0  0  0  0  0  0  0
    2.5827   28.6807    6.3360 N   0  0  0  0  0  0  0  0  0  0  0  0
    3.2365   27.5251    6.6032 C   0  0  0  0  0  0  0  0  0  0  0  0
    3.9871   26.9068    5.5819 C   0  0  0  0  0  0  0  0  0  0  0  0
    3.9347   25.0874    9.7381 S   0  0  0  0  0  0  0  0  0  0  0  0
    2.9329   26.1133   10.8427 C   0  0  0  0  0  0  0  0  0  0  0  0
   -2.3473   32.7449    8.2886 H   0  0  0  0  0  0  0  0  0  0  0  0
    0.3548   26.3504    8.8841 H   0  0  0  0  0  0  0  0  0  0  0  0
   -1.0756   25.9287    7.8828 H   0  0  0  0  0  0  0  0  0  0  0  0
   -2.3913   25.7635   10.0760 H   0  0  0  0  0  0  0  0  0  0  0  0
   -1.7056   23.7998    8.7901 H   0  0  0  0  0  0  0  0  0  0  0  0
   -0.0549   23.8683    9.4951 H   0  0  0  0  0  0  0  0  0  0  0  0
   -2.6643   23.3154   10.9950 H   0  0  0  0  0  0  0  0  0  0  0  0
   -1.3742   22.1268   10.6083 H   0  0  0  0  0  0  0  0  0  0  0  0
   -1.2434   22.9254   12.9699 H   0  0  0  0  0  0  0  0  0  0  0  0
    0.2221   23.3603   12.0266 H   0  0  0  0  0  0  0  0  0  0  0  0
   -2.1477   25.1942   12.6804 H   0  0  0  0  0  0  0  0  0  0  0  0
   -0.4976   25.2825   13.3847 H   0  0  0  0  0  0  0  0  0  0  0  0
    0.4575   25.8452   11.2064 H   0  0  0  0  0  0  0  0  0  0  0  0
   -0.8891   26.9759   11.5737 H   0  0  0  0  0  0  0  0  0  0  0  0
    5.2489   25.2365    5.0459 H   0  0  0  0  0  0  0  0  0  0  0  0
    5.1989   24.2194    7.3147 H   0  0  0  0  0  0  0  0  0  0  0  0
    2.7061   27.4407    8.6982 H   0  0  0  0  0  0  0  0  0  0  0  0
   -2.6805   30.3952    9.0943 H   0  0  0  0  0  0  0  0  0  0  0  0
    3.0515   29.3048    5.7110 H   0  0  0  0  0  0  0  0  0  0  0  0
    4.0232   27.3508    4.5981 H   0  0  0  0  0  0  0  0  0  0  0  0
    2.9290   25.6723   11.8504 H   0  0  0  0  0  0  0  0  0  0  0  0
    3.3582   27.1268   10.8878 H   0  0  0  0  0  0  0  0  0  0  0  0
    1.9025   26.1647   10.4611 H   0  0  0  0  0  0  0  0  0  0  0  0
  1 14  2  0  0  0  0
  1 21  1  0  0  0  0
  1 22  1  0  0  0  0
  2 18  1  0  0  0  0
  2 19  2  0  0  0  0
  3  4  1  0  0  0  0
  3 16  1  0  0  0  0
  4  5  1  0  0  0  0
  4  9  1  0  0  0  0
  5  6  1  0  0  0  0
  6  7  1  0  0  0  0
  7  8  1  0  0  0  0
  8  9  1  0  0  0  0
 10 11  2  0  0  0  0
 10 24  1  0  0  0  0
 11 12  1  0  0  0  0
 12 13  2  0  0  0  0
 12 25  1  0  0  0  0
 13 23  1  0  0  0  0
 14 15  1  0  0  0  0
 15 16  1  0  0  0  0
 15 17  2  0  0  0  0
 17 18  1  0  0  0  0
 17 20  1  0  0  0  0
 19 20  1  0  0  0  0
 20 21  2  0  0  0  0
 22 23  1  0  0  0  0
 23 24  2  0  0  0  0
 25 26  1  0  0  0  0
  2 27  1  0  0  0  0
  3 28  1  0  0  0  0
  3 29  1  0  0  0  0
  4 30  1  0  0  0  0
  5 31  1  0  0  0  0
  5 32  1  0  0  0  0
  6 33  1  0  0  0  0
  6 34  1  0  0  0  0
  7 35  1  0  0  0  0
  7 36  1  0  0  0  0
  8 37  1  0  0  0  0
  8 38  1  0  0  0  0
  9 39  1  0  0  0  0
  9 40  1  0  0  0  0
 10 41  1  0  0  0  0
 11 42  1  0  0  0  0
 13 43  1  0  0  0  0
 18 44  1  0  0  0  0
 22 45  1  0  0  0  0
 24 46  1  0  0  0  0
 26 47  1  0  0  0  0
 26 48  1  0  0  0  0
 26 49  1  0  0  0  0
M  END
> <r_user_dG.exp>
-7.862

$$$$
22
  -OEChem-05192314073D
 Structure written by MMmdl.
 49 52  0     0  0  0  0  0  0999 V2000
    1.3901   29.1077    6.7935 C   0  0  0  0  0  0  0  0  0  0  0  0
   -1.6911   31.9130    8.0794 C   0  0  0  0  0  0  0  0  0  0  0  0
   -0.7437   26.3748    8.8319 C   0  0  0  0  0  0  0  0  0  0  0  0
   -1.3142   25.5567    9.9914 C   0  0  0  0  0  0  0  0  0  0  0  0
   -1.1214   24.0589    9.6854 C   0  0  0  0  0  0  0  0  0  0  0  0
   -1.5824   23.1795   10.8502 C   0  0  0  0  0  0  0  0  0  0  0  0
   -0.8551   23.5463   12.1491 C   0  0  0  0  0  0  0  0  0  0  0  0
   -1.0780   25.0277   12.4857 C   0  0  0  0  0  0  0  0  0  0  0  0
   -0.6321   25.9351   11.3273 C   0  0  0  0  0  0  0  0  0  0  0  0
    4.6903   25.7129    5.8380 C   0  0  0  0  0  0  0  0  0  0  0  0
    4.6667   25.1395    7.1233 C   0  0  0  0  0  0  0  0  0  0  0  0
    3.9496   25.7658    8.1576 C   0  0  0  0  0  0  0  0  0  0  0  0
    3.2460   26.9556    7.8985 C   0  0  0  0  0  0  0  0  0  0  0  0
    0.6302   28.2313    7.4508 N   0  0  0  0  0  0  0  0  0  0  0  0
   -0.4898   28.6252    8.0923 C   0  0  0  0  0  0  0  0  0  0  0  0
   -1.1796   27.7315    8.8832 O   0  0  0  0  0  0  0  0  0  0  0  0
   -0.8660   29.9818    8.0000 C   0  0  0  0  0  0  0  0  0  0  0  0
   -1.9251   30.7129    8.5212 N   0  0  0  0  0  0  0  0  0  0  0  0
   -0.5542   32.0464    7.3306 N   0  0  0  0  0  0  0  0  0  0  0  0
   -0.0249   30.7863    7.2610 C   0  0  0  0  0  0  0  0  0  0  0  0
    1.1172   30.4049    6.6113 N   0  0  0  0  0  0  0  0  0  0  0  0
    2.5827   28.6807    6.3360 N   0  0  0  0  0  0  0  0  0  0  0  0
    3.2365   27.5251    6.6032 C   0  0  0  0  0  0  0  0  0  0  0  0
    3.9871   26.9068    5.5819 C   0  0  0  0  0  0  0  0  0  0  0  0
    3.9347   25.0874    9.7381 S   0  0  0  0  0  0  0  0  0  0  0  0
    2.9329   26.1133   10.8427 C   0  0  0  0  0  0  0  0  0  0  0  0
   -2.3473   32.7449    8.2886 H   0  0  0  0  0  0  0  0  0  0  0  0
    0.3548   26.3504    8.8841 H   0  0  0  0  0  0  0  0  0  0  0  0
   -1.0756   25.9287    7.8828 H   0  0  0  0  0  0  0  0  0  0  0  0
   -2.3913   25.7635   10.0760 H   0  0  0  0  0  0  0  0  0  0  0  0
   -1.7056   23.7998    8.7901 H   0  0  0  0  0  0  0  0  0  0  0  0
   -0.0549   23.8683    9.4951 H   0  0  0  0  0  0  0  0  0  0  0  0
   -2.6643   23.3154   10.9950 H   0  0  0  0  0  0  0  0  0  0  0  0
   -1.3742   22.1268   10.6083 H   0  0  0  0  0  0  0  0  0  0  0  0
   -1.2434   22.9254   12.9699 H   0  0  0  0  0  0  0  0  0  0  0  0
    0.2221   23.3603   12.0266 H   0  0  0  0  0  0  0  0  0  0  0  0
   -2.1477   25.1942   12.6804 H   0  0  0  0  0  0  0  0  0  0  0  0
   -0.4976   25.2825   13.3847 H   0  0  0  0  0  0  0  0  0  0  0  0
    0.4575   25.8452   11.2064 H   0  0  0  0  0  0  0  0  0  0  0  0
   -0.8891   26.9759   11.5737 H   0  0  0  0  0  0  0  0  0  0  0  0
    5.2489   25.2365    5.0459 H   0  0  0  0  0  0  0  0  0  0  0  0
    5.1989   24.2194    7.3147 H   0  0  0  0  0  0  0  0  0  0  0  0
    2.7061   27.4407    8.6982 H   0  0  0  0  0  0  0  0  0  0  0  0
   -0.1890   32.8832    6.9226 H   0  0  0  0  0  0  0  0  0  0  0  0
    3.0515   29.3048    5.7110 H   0  0  0  0  0  0  0  0  0  0  0  0
    4.0232   27.3508    4.5981 H   0  0  0  0  0  0  0  0  0  0  0  0
    2.9290   25.6723   11.8504 H   0  0  0  0  0  0  0  0  0  0  0  0
    3.3582   27.1268   10.8878 H   0  0  0  0  0  0  0  0  0  0  0  0
    1.9025   26.1647   10.4611 H   0  0  0  0  0  0  0  0  0  0  0  0
  1 14  2  0  0  0  0
  1 21  1  0  0  0  0
  1 22  1  0  0  0  0
  2 18  2  0  0  0  0
  2 19  1  0  0  0  0
  3  4  1  0  0  0  0
  3 16  1  0  0  0  0
  4  5  1  0  0  0  0
  4  9  1  0  0  0  0
  5  6  1  0  0  0  0
  6  7  1  0  0  0  0
  7  8  1  0  0  0  0
  8  9  1  0  0  0  0
 10 11  2  0  0  0  0
 10 24  1  0  0  0  0
 11 12  1  0  0  0  0
 12 13  2  0  0  0  0
 12 25  1  0  0  0  0
 13 23  1  0  0  0  0
 14 15  1  0  0  0  0
 15 16  1  0  0  0  0
 15 17  2  0  0  0  0
 17 18  1  0  0  0  0
 17 20  1  0  0  0  0
 19 20  1  0  0  0  0
 20 21  2  0  0  0  0
 22 23  1  0  0  0  0
 23 24  2  0  0  0  0
 25 26  1  0  0  0  0
  2 27  1  0  0  0  0
  3 28  1  0  0  0  0
  3 29  1  0  0  0  0
  4 30  1  0  0  0  0
  5 31  1  0  0  0  0
  5 32  1  0  0  0  0
  6 33  1  0  0  0  0
  6 34  1  0  0  0  0
  7 35  1  0  0  0  0
  7 36  1  0  0  0  0
  8 37  1  0  0  0  0
  8 38  1  0  0  0  0
  9 39  1  0  0  0  0
  9 40  1  0  0  0  0
 10 41  1  0  0  0  0
 11 42  1  0  0  0  0
 13 43  1  0  0  0  0
 19 44  1  0  0  0  0
 22 45  1  0  0  0  0
 24 46  1  0  0  0  0
 26 47  1  0  0  0  0
 26 48  1  0  0  0  0
 26 49  1  0  0  0  0
M  END
> <r_user_dG.exp>
-7.862

$$$$
22
  -OEChem-05192314073D
 Structure written by MMmdl.
 49 52  0     0  0  0  0  0  0999 V2000
    1.3901   29.1077    6.7935 C   0  0  0  0  0  0  0  0  0  0  0  0
   -1.6911   31.9130    8.0794 C   0  0  0  0  0  0  0  0  0  0  0  0
   -0.7437   26.3748    8.8319 C   0  0  0  0  0  0  0  0  0  0  0  0
   -1.3142   25.5567    9.9914 C   0  0  0  0  0  0  0  0  0  0  0  0
   -1.1214   24.0589    9.6854 C   0  0  0  0  0  0  0  0  0  0  0  0
   -1.5824   23.1795   10.8502 C   0  0  0  0  0  0  0  0  0  0  0  0
   -0.8551   23.5463   12.1491 C   0  0  0  0  0  0  0  0  0  0  0  0
   -1.0780   25.0277   12.4857 C   0  0  0  0  0  0  0  0  0  0  0  0
   -0.6321   25.9351   11.3273 C   0  0  0  0  0  0  0  0  0  0  0  0
    4.6903   25.7129    5.8380 C   0  0  0  0  0  0  0  0  0  0  0  0
    4.6667   25.1395    7.1233 C   0  0  0  0  0  0  0  0  0  0  0  0
    3.9496   25.7658    8.1576 C   0  0  0  0  0  0  0  0  0  0  0  0
    3.2460   26.9556    7.8985 C   0  0  0  0  0  0  0  0  0  0  0  0
    0.6302   28.2313    7.4508 N   0  0  0  0  0  0  0  0  0  0  0  0
   -0.4898   28.6252    8.0923 C   0  0  0  0  0  0  0  0  0  0  0  0
   -1.1796   27.7315    8.8832 O   0  0  0  0  0  0  0  0  0  0  0  0
   -0.8660   29.9818    8.0000 C   0  0  0  0  0  0  0  0  0  0  0  0
   -1.9251   30.7129    8.5212 N   0  0  0  0  0  0  0  0  0  0  0  0
   -0.5542   32.0464    7.3306 N   0  0  0  0  0  0  0  0  0  0  0  0
   -0.0249   30.7863    7.2610 C   0  0  0  0  0  0  0  0  0  0  0  0
    1.1172   30.4049    6.6113 N   0  0  0  0  0  0  0  0  0  0  0  0
    2.5827   28.6807    6.3360 N   0  0  0  0  0  0  0  0  0  0  0  0
    3.2365   27.5251    6.6032 C   0  0  0  0  0  0  0  0  0  0  0  0
    3.9871   26.9068    5.5819 C   0  0  0  0  0  0  0  0  0  0  0  0
    3.9347   25.0874    9.7381 S   0  0  0  0  0  0  0  0  0  0  0  0
    2.9329   26.1133   10.8427 C   0  0  0  0  0  0  0  0  0  0  0  0
   -2.3473   32.7449    8.2886 H   0  0  0  0  0  0  0  0  0  0  0  0
    0.3548   26.3504    8.8841 H   0  0  0  0  0  0  0  0  0  0  0  0
   -1.0756   25.9287    7.8828 H   0  0  0  0  0  0  0  0  0  0  0  0
   -2.3913   25.7635   10.0760 H   0  0  0  0  0  0  0  0  0  0  0  0
   -1.7056   23.7998    8.7901 H   0  0  0  0  0  0  0  0  0  0  0  0
   -0.0549   23.8683    9.4951 H   0  0  0  0  0  0  0  0  0  0  0  0
   -2.6643   23.3154   10.9950 H   0  0  0  0  0  0  0  0  0  0  0  0
   -1.3742   22.1268   10.6083 H   0  0  0  0  0  0  0  0  0  0  0  0
   -1.2434   22.9254   12.9699 H   0  0  0  0  0  0  0  0  0  0  0  0
    0.2221   23.3603   12.0266 H   0  0  0  0  0  0  0  0  0  0  0  0
   -2.1477   25.1942   12.6804 H   0  0  0  0  0  0  0  0  0  0  0  0
   -0.4976   25.2825   13.3847 H   0  0  0  0  0  0  0  0  0  0  0  0
    0.4575   25.8452   11.2064 H   0  0  0  0  0  0  0  0  0  0  0  0
   -0.8891   26.9759   11.5737 H   0  0  0  0  0  0  0  0  0  0  0  0
    5.2489   25.2365    5.0459 H   0  0  0  0  0  0  0  0  0  0  0  0
    5.1989   24.2194    7.3147 H   0  0  0  0  0  0  0  0  0  0  0  0
    2.7061   27.4407    8.6982 H   0  0  0  0  0  0  0  0  0  0  0  0
   -2.6805   30.3952    9.0943 H   0  0  0  0  0  0  0  0  0  0  0  0
    1.6818   31.0231    6.0644 H   0  0  0  0  0  0  0  0  0  0  0  0
    4.0232   27.3508    4.5981 H   0  0  0  0  0  0  0  0  0  0  0  0
    2.9290   25.6723   11.8504 H   0  0  0  0  0  0  0  0  0  0  0  0
    3.3582   27.1268   10.8878 H   0  0  0  0  0  0  0  0  0  0  0  0
    1.9025   26.1647   10.4611 H   0  0  0  0  0  0  0  0  0  0  0  0
  1 14  1  0  0  0  0
  1 21  1  0  0  0  0
  1 22  2  0  0  0  0
  2 18  1  0  0  0  0
  2 19  2  0  0  0  0
  3  4  1  0  0  0  0
  3 16  1  0  0  0  0
  4  5  1  0  0  0  0
  4  9  1  0  0  0  0
  5  6  1  0  0  0  0
  6  7  1  0  0  0  0
  7  8  1  0  0  0  0
  8  9  1  0  0  0  0
 10 11  2  0  0  0  0
 10 24  1  0  0  0  0
 11 12  1  0  0  0  0
 12 13  2  0  0  0  0
 12 25  1  0  0  0  0
 13 23  1  0  0  0  0
 14 15  2  0  0  0  0
 15 16  1  0  0  0  0
 15 17  1  0  0  0  0
 17 18  1  0  0  0  0
 17 20  2  0  0  0  0
 19 20  1  0  0  0  0
 20 21  1  0  0  0  0
 22 23  1  0  0  0  0
 23 24  2  0  0  0  0
 25 26  1  0  0  0  0
  2 27  1  0  0  0  0
  3 28  1  0  0  0  0
  3 29  1  0  0  0  0
  4 30  1  0  0  0  0
  5 31  1  0  0  0  0
  5 32  1  0  0  0  0
  6 33  1  0  0  0  0
  6 34  1  0  0  0  0
  7 35  1  0  0  0  0
  7 36  1  0  0  0  0
  8 37  1  0  0  0  0
  8 38  1  0  0  0  0
  9 39  1  0  0  0  0
  9 40  1  0  0  0  0
 10 41  1  0  0  0  0
 11 42  1  0  0  0  0
 13 43  1  0  0  0  0
 18 44  1  0  0  0  0
 21 45  1  0  0  0  0
 24 46  1  0  0  0  0
 26 47  1  0  0  0  0
 26 48  1  0  0  0  0
 26 49  1  0  0  0  0
M  END
> <r_user_dG.exp>
-7.862

$$$$
22
  -OEChem-05192314073D
 Structure written by MMmdl.
 49 52  0     0  0  0  0  0  0999 V2000
    1.3901   29.1077    6.7935 C   0  0  0  0  0  0  0  0  0  0  0  0
   -1.6911   31.9130    8.0794 C   0  0  0  0  0  0  0  0  0  0  0  0
   -0.7437   26.3748    8.8319 C   0  0  0  0  0  0  0  0  0  0  0  0
   -1.3142   25.5567    9.9914 C   0  0  0  0  0  0  0  0  0  0  0  0
   -1.1214   24.0589    9.6854 C   0  0  0  0  0  0  0  0  0  0  0  0
   -1.5824   23.1795   10.8502 C   0  0  0  0  0  0  0  0  0  0  0  0
   -0.8551   23.5463   12.1491 C   0  0  0  0  0  0  0  0  0  0  0  0
   -1.0780   25.0277   12.4857 C   0  0  0  0  0  0  0  0  0  0  0  0
   -0.6321   25.9351   11.3273 C   0  0  0  0  0  0  0  0  0  0  0  0
    4.6903   25.7129    5.8380 C   0  0  0  0  0  0  0  0  0  0  0  0
    4.6667   25.1395    7.1233 C   0  0  0  0  0  0  0  0  0  0  0  0
    3.9496   25.7658    8.1576 C   0  0  0  0  0  0  0  0  0  0  0  0
    3.2460   26.9556    7.8985 C   0  0  0  0  0  0  0  0  0  0  0  0
    0.6302   28.2313    7.4508 N   0  0  0  0  0  0  0  0  0  0  0  0
   -0.4898   28.6252    8.0923 C   0  0  0  0  0  0  0  0  0  0  0  0
   -1.1796   27.7315    8.8832 O   0  0  0  0  0  0  0  0  0  0  0  0
   -0.8660   29.9818    8.0000 C   0  0  0  0  0  0  0  0  0  0  0  0
   -1.9251   30.7129    8.5212 N   0  0  0  0  0  0  0  0  0  0  0  0
   -0.5542   32.0464    7.3306 N   0  0  0  0  0  0  0  0  0  0  0  0
   -0.0249   30.7863    7.2610 C   0  0  0  0  0  0  0  0  0  0  0  0
    1.1172   30.4049    6.6113 N   0  0  0  0  0  0  0  0  0  0  0  0
    2.5827   28.6807    6.3360 N   0  0  0  0  0  0  0  0  0  0  0  0
    3.2365   27.5251    6.6032 C   0  0  0  0  0  0  0  0  0  0  0  0
    3.9871   26.9068    5.5819 C   0  0  0  0  0  0  0  0  0  0  0  0
    3.9347   25.0874    9.7381 S   0  0  0  0  0  0  0  0  0  0  0  0
    2.9329   26.1133   10.8427 C   0  0  0  0  0  0  0  0  0  0  0  0
   -2.3473   32.7449    8.2886 H   0  0  0  0  0  0  0  0  0  0  0  0
    0.3548   26.3504    8.8841 H   0  0  0  0  0  0  0  0  0  0  0  0
   -1.0756   25.9287    7.8828 H   0  0  0  0  0  0  0  0  0  0  0  0
   -2.3913   25.7635   10.0760 H   0  0  0  0  0  0  0  0  0  0  0  0
   -1.7056   23.7998    8.7901 H   0  0  0  0  0  0  0  0  0  0  0  0
   -0.0549   23.8683    9.4951 H   0  0  0  0  0  0  0  0  0  0  0  0
   -2.6643   23.3154   10.9950 H   0  0  0  0  0  0  0  0  0  0  0  0
   -1.3742   22.1268   10.6083 H   0  0  0  0  0  0  0  0  0  0  0  0
   -1.2434   22.9254   12.9699 H   0  0  0  0  0  0  0  0  0  0  0  0
    0.2221   23.3603   12.0266 H   0  0  0  0  0  0  0  0  0  0  0  0
   -2.1477   25.1942   12.6804 H   0  0  0  0  0  0  0  0  0  0  0  0
   -0.4976   25.2825   13.3847 H   0  0  0  0  0  0  0  0  0  0  0  0
    0.4575   25.8452   11.2064 H   0  0  0  0  0  0  0  0  0  0  0  0
   -0.8891   26.9759   11.5737 H   0  0  0  0  0  0  0  0  0  0  0  0
    5.2489   25.2365    5.0459 H   0  0  0  0  0  0  0  0  0  0  0  0
    5.1989   24.2194    7.3147 H   0  0  0  0  0  0  0  0  0  0  0  0
    2.7061   27.4407    8.6982 H   0  0  0  0  0  0  0  0  0  0  0  0
    0.8943   27.2670    7.4687 H   0  0  0  0  0  0  0  0  0  0  0  0
   -2.6805   30.3952    9.0943 H   0  0  0  0  0  0  0  0  0  0  0  0
    4.0232   27.3508    4.5981 H   0  0  0  0  0  0  0  0  0  0  0  0
    2.9290   25.6723   11.8504 H   0  0  0  0  0  0  0  0  0  0  0  0
    3.3582   27.1268   10.8878 H   0  0  0  0  0  0  0  0  0  0  0  0
    1.9025   26.1647   10.4611 H   0  0  0  0  0  0  0  0  0  0  0  0
  1 14  1  0  0  0  0
  1 21  1  0  0  0  0
  1 22  2  0  0  0  0
  2 18  1  0  0  0  0
  2 19  2  0  0  0  0
  3  4  1  0  0  0  0
  3 16  1  0  0  0  0
  4  5  1  0  0  0  0
  4  9  1  0  0  0  0
  5  6  1  0  0  0  0
  6  7  1  0  0  0  0
  7  8  1  0  0  0  0
  8  9  1  0  0  0  0
 10 11  2  0  0  0  0
 10 24  1  0  0  0  0
 11 12  1  0  0  0  0
 12 13  2  0  0  0  0
 12 25  1  0  0  0  0
 13 23  1  0  0  0  0
 14 15  1  0  0  0  0
 15 16  1  0  0  0  0
 15 17  2  0  0  0  0
 17 18  1  0  0  0  0
 17 20  1  0  0  0  0
 19 20  1  0  0  0  0
 20 21  2  0  0  0  0
 22 23  1  0  0  0  0
 23 24  2  0  0  0  0
 25 26  1  0  0  0  0
  2 27  1  0  0  0  0
  3 28  1  0  0  0  0
  3 29  1  0  0  0  0
  4 30  1  0  0  0  0
  5 31  1  0  0  0  0
  5 32  1  0  0  0  0
  6 33  1  0  0  0  0
  6 34  1  0  0  0  0
  7 35  1  0  0  0  0
  7 36  1  0  0  0  0
  8 37  1  0  0  0  0
  8 38  1  0  0  0  0
  9 39  1  0  0  0  0
  9 40  1  0  0  0  0
 10 41  1  0  0  0  0
 11 42  1  0  0  0  0
 13 43  1  0  0  0  0
 14 44  1  0  0  0  0
 18 45  1  0  0  0  0
 24 46  1  0  0  0  0
 26 47  1  0  0  0  0
 26 48  1  0  0  0  0
 26 49  1  0  0  0  0
M  END
> <r_user_dG.exp>
-7.862

$$$$
22
  -OEChem-05192314073D
 Structure written by MMmdl.
 49 52  0     0  0  0  0  0  0999 V2000
    1.3901   29.1077    6.7935 C   0  0  0  0  0  0  0  0  0  0  0  0
   -1.6911   31.9130    8.0794 C   0  0  0  0  0  0  0  0  0  0  0  0
   -0.7437   26.3748    8.8319 C   0  0  0  0  0  0  0  0  0  0  0  0
   -1.3142   25.5567    9.9914 C   0  0  0  0  0  0  0  0  0  0  0  0
   -1.1214   24.0589    9.6854 C   0  0  0  0  0  0  0  0  0  0  0  0
   -1.5824   23.1795   10.8502 C   0  0  0  0  0  0  0  0  0  0  0  0
   -0.8551   23.5463   12.1491 C   0  0  0  0  0  0  0  0  0  0  0  0
   -1.0780   25.0277   12.4857 C   0  0  0  0  0  0  0  0  0  0  0  0
   -0.6321   25.9351   11.3273 C   0  0  0  0  0  0  0  0  0  0  0  0
    4.6903   25.7129    5.8380 C   0  0  0  0  0  0  0  0  0  0  0  0
    4.6667   25.1395    7.1233 C   0  0  0  0  0  0  0  0  0  0  0  0
    3.9496   25.7658    8.1576 C   0  0  0  0  0  0  0  0  0  0  0  0
    3.2460   26.9556    7.8985 C   0  0  0  0  0  0  0  0  0  0  0  0
    0.6302   28.2313    7.4508 N   0  0  0  0  0  0  0  0  0  0  0  0
   -0.4898   28.6252    8.0923 C   0  0  0  0  0  0  0  0  0  0  0  0
   -1.1796   27.7315    8.8832 O   0  0  0  0  0  0  0  0  0  0  0  0
   -0.8660   29.9818    8.0000 C   0  0  0  0  0  0  0  0  0  0  0  0
   -1.9251   30.7129    8.5212 N   0  0  0  0  0  0  0  0  0  0  0  0
   -0.5542   32.0464    7.3306 N   0  0  0  0  0  0  0  0  0  0  0  0
   -0.0249   30.7863    7.2610 C   0  0  0  0  0  0  0  0  0  0  0  0
    1.1172   30.4049    6.6113 N   0  0  0  0  0  0  0  0  0  0  0  0
    2.5827   28.6807    6.3360 N   0  0  0  0  0  0  0  0  0  0  0  0
    3.2365   27.5251    6.6032 C   0  0  0  0  0  0  0  0  0  0  0  0
    3.9871   26.9068    5.5819 C   0  0  0  0  0  0  0  0  0  0  0  0
    3.9347   25.0874    9.7381 S   0  0  0  0  0  0  0  0  0  0  0  0
    2.9329   26.1133   10.8427 C   0  0  0  0  0  0  0  0  0  0  0  0
   -2.3473   32.7449    8.2886 H   0  0  0  0  0  0  0  0  0  0  0  0
    0.3548   26.3504    8.8841 H   0  0  0  0  0  0  0  0  0  0  0  0
   -1.0756   25.9287    7.8828 H   0  0  0  0  0  0  0  0  0  0  0  0
   -2.3913   25.7635   10.0760 H   0  0  0  0  0  0  0  0  0  0  0  0
   -1.7056   23.7998    8.7901 H   0  0  0  0  0  0  0  0  0  0  0  0
   -0.0549   23.8683    9.4951 H   0  0  0  0  0  0  0  0  0  0  0  0
   -2.6643   23.3154   10.9950 H   0  0  0  0  0  0  0  0  0  0  0  0
   -1.3742   22.1268   10.6083 H   0  0  0  0  0  0  0  0  0  0  0  0
   -1.2434   22.9254   12.9699 H   0  0  0  0  0  0  0  0  0  0  0  0
    0.2221   23.3603   12.0266 H   0  0  0  0  0  0  0  0  0  0  0  0
   -2.1477   25.1942   12.6804 H   0  0  0  0  0  0  0  0  0  0  0  0
   -0.4976   25.2825   13.3847 H   0  0  0  0  0  0  0  0  0  0  0  0
    0.4575   25.8452   11.2064 H   0  0  0  0  0  0  0  0  0  0  0  0
   -0.8891   26.9759   11.5737 H   0  0  0  0  0  0  0  0  0  0  0  0
    5.2489   25.2365    5.0459 H   0  0  0  0  0  0  0  0  0  0  0  0
    5.1989   24.2194    7.3147 H   0  0  0  0  0  0  0  0  0  0  0  0
    2.7061   27.4407    8.6982 H   0  0  0  0  0  0  0  0  0  0  0  0
   -0.1890   32.8832    6.9226 H   0  0  0  0  0  0  0  0  0  0  0  0
    1.6818   31.0231    6.0644 H   0  0  0  0  0  0  0  0  0  0  0  0
    4.0232   27.3508    4.5981 H   0  0  0  0  0  0  0  0  0  0  0  0
    2.9290   25.6723   11.8504 H   0  0  0  0  0  0  0  0  0  0  0  0
    3.3582   27.1268   10.8878 H   0  0  0  0  0  0  0  0  0  0  0  0
    1.9025   26.1647   10.4611 H   0  0  0  0  0  0  0  0  0  0  0  0
  1 14  1  0  0  0  0
  1 21  1  0  0  0  0
  1 22  2  0  0  0  0
  2 18  2  0  0  0  0
  2 19  1  0  0  0  0
  3  4  1  0  0  0  0
  3 16  1  0  0  0  0
  4  5  1  0  0  0  0
  4  9  1  0  0  0  0
  5  6  1  0  0  0  0
  6  7  1  0  0  0  0
  7  8  1  0  0  0  0
  8  9  1  0  0  0  0
 10 11  2  0  0  0  0
 10 24  1  0  0  0  0
 11 12  1  0  0  0  0
 12 13  2  0  0  0  0
 12 25  1  0  0  0  0
 13 23  1  0  0  0  0
 14 15  2  0  0  0  0
 15 16  1  0  0  0  0
 15 17  1  0  0  0  0
 17 18  1  0  0  0  0
 17 20  2  0  0  0  0
 19 20  1  0  0  0  0
 20 21  1  0  0  0  0
 22 23  1  0  0  0  0
 23 24  2  0  0  0  0
 25 26  1  0  0  0  0
  2 27  1  0  0  0  0
  3 28  1  0  0  0  0
  3 29  1  0  0  0  0
  4 30  1  0  0  0  0
  5 31  1  0  0  0  0
  5 32  1  0  0  0  0
  6 33  1  0  0  0  0
  6 34  1  0  0  0  0
  7 35  1  0  0  0  0
  7 36  1  0  0  0  0
  8 37  1  0  0  0  0
  8 38  1  0  0  0  0
  9 39  1  0  0  0  0
  9 40  1  0  0  0  0
 10 41  1  0  0  0  0
 11 42  1  0  0  0  0
 13 43  1  0  0  0  0
 19 44  1  0  0  0  0
 21 45  1  0  0  0  0
 24 46  1  0  0  0  0
 26 47  1  0  0  0  0
 26 48  1  0  0  0  0
 26 49  1  0  0  0  0
M  END
> <r_user_dG.exp>
-7.862

$$$$
22
  -OEChem-05192314073D
 Structure written by MMmdl.
 49 52  0     0  0  0  0  0  0999 V2000
    1.3901   29.1077    6.7935 C   0  0  0  0  0  0  0  0  0  0  0  0
   -1.6911   31.9130    8.0794 C   0  0  0  0  0  0  0  0  0  0  0  0
   -0.7437   26.3748    8.8319 C   0  0  0  0  0  0  0  0  0  0  0  0
   -1.3142   25.5567    9.9914 C   0  0  0  0  0  0  0  0  0  0  0  0
   -1.1214   24.0589    9.6854 C   0  0  0  0  0  0  0  0  0  0  0  0
   -1.5824   23.1795   10.8502 C   0  0  0  0  0  0  0  0  0  0  0  0
   -0.8551   23.5463   12.1491 C   0  0  0  0  0  0  0  0  0  0  0  0
   -1.0780   25.0277   12.4857 C   0  0  0  0  0  0  0  0  0  0  0  0
   -0.6321   25.9351   11.3273 C   0  0  0  0  0  0  0  0  0  0  0  0
    4.6903   25.7129    5.8380 C   0  0  0  0  0  0  0  0  0  0  0  0
    4.6667   25.1395    7.1233 C   0  0  0  0  0  0  0  0  0  0  0  0
    3.9496   25.7658    8.1576 C   0  0  0  0  0  0  0  0  0  0  0  0
    3.2460   26.9556    7.8985 C   0  0  0  0  0  0  0  0  0  0  0  0
    0.6302   28.2313    7.4508 N   0  0  0  0  0  0  0  0  0  0  0  0
   -0.4898   28.6252    8.0923 C   0  0  0  0  0  0  0  0  0  0  0  0
   -1.1796   27.7315    8.8832 O   0  0  0  0  0  0  0  0  0  0  0  0
   -0.8660   29.9818    8.0000 C   0  0  0  0  0  0  0  0  0  0  0  0
   -1.9251   30.7129    8.5212 N   0  0  0  0  0  0  0  0  0  0  0  0
   -0.5542   32.0464    7.3306 N   0  0  0  0  0  0  0  0  0  0  0  0
   -0.0249   30.7863    7.2610 C   0  0  0  0  0  0  0  0  0  0  0  0
    1.1172   30.4049    6.6113 N   0  0  0  0  0  0  0  0  0  0  0  0
    2.5827   28.6807    6.3360 N   0  0  0  0  0  0  0  0  0  0  0  0
    3.2365   27.5251    6.6032 C   0  0  0  0  0  0  0  0  0  0  0  0
    3.9871   26.9068    5.5819 C   0  0  0  0  0  0  0  0  0  0  0  0
    3.9347   25.0874    9.7381 S   0  0  0  0  0  0  0  0  0  0  0  0
    2.9329   26.1133   10.8427 C   0  0  0  0  0  0  0  0  0  0  0  0
   -2.3473   32.7449    8.2886 H   0  0  0  0  0  0  0  0  0  0  0  0
    0.3548   26.3504    8.8841 H   0  0  0  0  0  0  0  0  0  0  0  0
   -1.0756   25.9287    7.8828 H   0  0  0  0  0  0  0  0  0  0  0  0
   -2.3913   25.7635   10.0760 H   0  0  0  0  0  0  0  0  0  0  0  0
   -1.7056   23.7998    8.7901 H   0  0  0  0  0  0  0  0  0  0  0  0
   -0.0549   23.8683    9.4951 H   0  0  0  0  0  0  0  0  0  0  0  0
   -2.6643   23.3154   10.9950 H   0  0  0  0  0  0  0  0  0  0  0  0
   -1.3742   22.1268   10.6083 H   0  0  0  0  0  0  0  0  0  0  0  0
   -1.2434   22.9254   12.9699 H   0  0  0  0  0  0  0  0  0  0  0  0
    0.2221   23.3603   12.0266 H   0  0  0  0  0  0  0  0  0  0  0  0
   -2.1477   25.1942   12.6804 H   0  0  0  0  0  0  0  0  0  0  0  0
   -0.4976   25.2825   13.3847 H   0  0  0  0  0  0  0  0  0  0  0  0
    0.4575   25.8452   11.2064 H   0  0  0  0  0  0  0  0  0  0  0  0
   -0.8891   26.9759   11.5737 H   0  0  0  0  0  0  0  0  0  0  0  0
    5.2489   25.2365    5.0459 H   0  0  0  0  0  0  0  0  0  0  0  0
    5.1989   24.2194    7.3147 H   0  0  0  0  0  0  0  0  0  0  0  0
    2.7061   27.4407    8.6982 H   0  0  0  0  0  0  0  0  0  0  0  0
    0.8943   27.2670    7.4687 H   0  0  0  0  0  0  0  0  0  0  0  0
   -0.1890   32.8832    6.9226 H   0  0  0  0  0  0  0  0  0  0  0  0
    4.0232   27.3508    4.5981 H   0  0  0  0  0  0  0  0  0  0  0  0
    2.9290   25.6723   11.8504 H   0  0  0  0  0  0  0  0  0  0  0  0
    3.3582   27.1268   10.8878 H   0  0  0  0  0  0  0  0  0  0  0  0
    1.9025   26.1647   10.4611 H   0  0  0  0  0  0  0  0  0  0  0  0
  1 14  1  0  0  0  0
  1 21  1  0  0  0  0
  1 22  2  0  0  0  0
  2 18  2  0  0  0  0
  2 19  1  0  0  0  0
  3  4  1  0  0  0  0
  3 16  1  0  0  0  0
  4  5  1  0  0  0  0
  4  9  1  0  0  0  0
  5  6  1  0  0  0  0
  6  7  1  0  0  0  0
  7  8  1  0  0  0  0
  8  9  1  0  0  0  0
 10 11  2  0  0  0  0
 10 24  1  0  0  0  0
 11 12  1  0  0  0  0
 12 13  2  0  0  0  0
 12 25  1  0  0  0  0
 13 23  1  0  0  0  0
 14 15  1  0  0  0  0
 15 16  1  0  0  0  0
 15 17  2  0  0  0  0
 17 18  1  0  0  0  0
 17 20  1  0  0  0  0
 19 20  1  0  0  0  0
 20 21  2  0  0  0  0
 22 23  1  0  0  0  0
 23 24  2  0  0  0  0
 25 26  1  0  0  0  0
  2 27  1  0  0  0  0
  3 28  1  0  0  0  0
  3 29  1  0  0  0  0
  4 30  1  0  0  0  0
  5 31  1  0  0  0  0
  5 32  1  0  0  0  0
  6 33  1  0  0  0  0
  6 34  1  0  0  0  0
  7 35  1  0  0  0  0
  7 36  1  0  0  0  0
  8 37  1  0  0  0  0
  8 38  1  0  0  0  0
  9 39  1  0  0  0  0
  9 40  1  0  0  0  0
 10 41  1  0  0  0  0
 11 42  1  0  0  0  0
 13 43  1  0  0  0  0
 14 44  1  0  0  0  0
 19 45  1  0  0  0  0
 24 46  1  0  0  0  0
 26 47  1  0  0  0  0
 26 48  1  0  0  0  0
 26 49  1  0  0  0  0
M  END
> <r_user_dG.exp>
-7.862

$$$$
22
  -OEChem-05192314073D
 Structure written by MMmdl.
 49 52  0     0  0  0  0  0  0999 V2000
    1.3901   29.1077    6.7935 C   0  0  0  0  0  0  0  0  0  0  0  0
   -1.6911   31.9130    8.0794 C   0  0  0  0  0  0  0  0  0  0  0  0
   -0.7437   26.3748    8.8319 C   0  0  0  0  0  0  0  0  0  0  0  0
   -1.3142   25.5567    9.9914 C   0  0  0  0  0  0  0  0  0  0  0  0
   -1.1214   24.0589    9.6854 C   0  0  0  0  0  0  0  0  0  0  0  0
   -1.5824   23.1795   10.8502 C   0  0  0  0  0  0  0  0  0  0  0  0
   -0.8551   23.5463   12.1491 C   0  0  0  0  0  0  0  0  0  0  0  0
   -1.0780   25.0277   12.4857 C   0  0  0  0  0  0  0  0  0  0  0  0
   -0.6321   25.9351   11.3273 C   0  0  0  0  0  0  0  0  0  0  0  0
    4.6903   25.7129    5.8380 C   0  0  0  0  0  0  0  0  0  0  0  0
    4.6667   25.1395    7.1233 C   0  0  0  0  0  0  0  0  0  0  0  0
    3.9496   25.7658    8.1576 C   0  0  0  0  0  0  0  0  0  0  0  0
    3.2460   26.9556    7.8985 C   0  0  0  0  0  0  0  0  0  0  0  0
    0.6302   28.2313    7.4508 N   0  0  0  0  0  0  0  0  0  0  0  0
   -0.4898   28.6252    8.0923 C   0  0  0  0  0  0  0  0  0  0  0  0
   -1.1796   27.7315    8.8832 O   0  0  0  0  0  0  0  0  0  0  0  0
   -0.8660   29.9818    8.0000 C   0  0  0  0  0  0  0  0  0  0  0  0
   -1.9251   30.7129    8.5212 N   0  0  0  0  0  0  0  0  0  0  0  0
   -0.5542   32.0464    7.3306 N   0  0  0  0  0  0  0  0  0  0  0  0
   -0.0249   30.7863    7.2610 C   0  0  0  0  0  0  0  0  0  0  0  0
    1.1172   30.4049    6.6113 N   0  0  0  0  0  0  0  0  0  0  0  0
    2.5827   28.6807    6.3360 N   0  0  0  0  0  0  0  0  0  0  0  0
    3.2365   27.5251    6.6032 C   0  0  0  0  0  0  0  0  0  0  0  0
    3.9871   26.9068    5.5819 C   0  0  0  0  0  0  0  0  0  0  0  0
    3.9347   25.0874    9.7381 S   0  0  0  0  0  0  0  0  0  0  0  0
    2.9329   26.1133   10.8427 C   0  0  0  0  0  0  0  0  0  0  0  0
   -2.3473   32.7449    8.2886 H   0  0  0  0  0  0  0  0  0  0  0  0
    0.3548   26.3504    8.8841 H   0  0  0  0  0  0  0  0  0  0  0  0
   -1.0756   25.9287    7.8828 H   0  0  0  0  0  0  0  0  0  0  0  0
   -2.3913   25.7635   10.0760 H   0  0  0  0  0  0  0  0  0  0  0  0
   -1.7056   23.7998    8.7901 H   0  0  0  0  0  0  0  0  0  0  0  0
   -0.0549   23.8683    9.4951 H   0  0  0  0  0  0  0  0  0  0  0  0
   -2.6643   23.3154   10.9950 H   0  0  0  0  0  0  0  0  0  0  0  0
   -1.3742   22.1268   10.6083 H   0  0  0  0  0  0  0  0  0  0  0  0
   -1.2434   22.9254   12.9699 H   0  0  0  0  0  0  0  0  0  0  0  0
    0.2221   23.3603   12.0266 H   0  0  0  0  0  0  0  0  0  0  0  0
   -2.1477   25.1942   12.6804 H   0  0  0  0  0  0  0  0  0  0  0  0
   -0.4976   25.2825   13.3847 H   0  0  0  0  0  0  0  0  0  0  0  0
    0.4575   25.8452   11.2064 H   0  0  0  0  0  0  0  0  0  0  0  0
   -0.8891   26.9759   11.5737 H   0  0  0  0  0  0  0  0  0  0  0  0
    5.2489   25.2365    5.0459 H   0  0  0  0  0  0  0  0  0  0  0  0
    5.1989   24.2194    7.3147 H   0  0  0  0  0  0  0  0  0  0  0  0
    2.7061   27.4407    8.6982 H   0  0  0  0  0  0  0  0  0  0  0  0
    1.6818   31.0231    6.0644 H   0  0  0  0  0  0  0  0  0  0  0  0
    3.0515   29.3048    5.7110 H   0  0  0  0  0  0  0  0  0  0  0  0
    4.0232   27.3508    4.5981 H   0  0  0  0  0  0  0  0  0  0  0  0
    2.9290   25.6723   11.8504 H   0  0  0  0  0  0  0  0  0  0  0  0
    3.3582   27.1268   10.8878 H   0  0  0  0  0  0  0  0  0  0  0  0
    1.9025   26.1647   10.4611 H   0  0  0  0  0  0  0  0  0  0  0  0
  1 14  2  0  0  0  0
  1 21  1  0  0  0  0
  1 22  1  0  0  0  0
  2 18  2  0  0  0  0
  2 19  1  0  0  0  0
  3  4  1  0  0  0  0
  3 16  1  0  0  0  0
  4  5  1  0  0  0  0
  4  9  1  0  0  0  0
  5  6  1  0  0  0  0
  6  7  1  0  0  0  0
  7  8  1  0  0  0  0
  8  9  1  0  0  0  0
 10 11  2  0  0  0  0
 10 24  1  0  0  0  0
 11 12  1  0  0  0  0
 12 13  2  0  0  0  0
 12 25  1  0  0  0  0
 13 23  1  0  0  0  0
 14 15  1  0  0  0  0
 15 16  1  0  0  0  0
 15 17  2  0  0  0  0
 17 18  1  0  0  0  0
 17 20  1  0  0  0  0
 19 20  2  0  0  0  0
 20 21  1  0  0  0  0
 22 23  1  0  0  0  0
 23 24  2  0  0  0  0
 25 26  1  0  0  0  0
  2 27  1  0  0  0  0
  3 28  1  0  0  0  0
  3 29  1  0  0  0  0
  4 30  1  0  0  0  0
  5 31  1  0  0  0  0
  5 32  1  0  0  0  0
  6 33  1  0  0  0  0
  6 34  1  0  0  0  0
  7 35  1  0  0  0  0
  7 36  1  0  0  0  0
  8 37  1  0  0  0  0
  8 38  1  0  0  0  0
  9 39  1  0  0  0  0
  9 40  1  0  0  0  0
 10 41  1  0  0  0  0
 11 42  1  0  0  0  0
 13 43  1  0  0  0  0
 21 44  1  0  0  0  0
 22 45  1  0  0  0  0
 24 46  1  0  0  0  0
 26 47  1  0  0  0  0
 26 48  1  0  0  0  0
 26 49  1  0  0  0  0
M  END
> <r_user_dG.exp>
-7.862

$$$$
22
  -OEChem-05192314073D
 Structure written by MMmdl.
 49 52  0     0  0  0  0  0  0999 V2000
    1.3901   29.1077    6.7935 C   0  0  0  0  0  0  0  0  0  0  0  0
   -1.6911   31.9130    8.0794 C   0  0  0  0  0  0  0  0  0  0  0  0
   -0.7437   26.3748    8.8319 C   0  0  0  0  0  0  0  0  0  0  0  0
   -1.3142   25.5567    9.9914 C   0  0  0  0  0  0  0  0  0  0  0  0
   -1.1214   24.0589    9.6854 C   0  0  0  0  0  0  0  0  0  0  0  0
   -1.5824   23.1795   10.8502 C   0  0  0  0  0  0  0  0  0  0  0  0
   -0.8551   23.5463   12.1491 C   0  0  0  0  0  0  0  0  0  0  0  0
   -1.0780   25.0277   12.4857 C   0  0  0  0  0  0  0  0  0  0  0  0
   -0.6321   25.9351   11.3273 C   0  0  0  0  0  0  0  0  0  0  0  0
    4.6903   25.7129    5.8380 C   0  0  0  0  0  0  0  0  0  0  0  0
    4.6667   25.1395    7.1233 C   0  0  0  0  0  0  0  0  0  0  0  0
    3.9496   25.7658    8.1576 C   0  0  0  0  0  0  0  0  0  0  0  0
    3.2460   26.9556    7.8985 C   0  0  0  0  0  0  0  0  0  0  0  0
    0.6302   28.2313    7.4508 N   0  0  0  0  0  0  0  0  0  0  0  0
   -0.4898   28.6252    8.0923 C   0  0  0  0  0  0  0  0  0  0  0  0
   -1.1796   27.7315    8.8832 O   0  0  0  0  0  0  0  0  0  0  0  0
   -0.8660   29.9818    8.0000 C   0  0  0  0  0  0  0  0  0  0  0  0
   -1.9251   30.7129    8.5212 N   0  0  0  0  0  0  0  0  0  0  0  0
   -0.5542   32.0464    7.3306 N   0  0  0  0  0  0  0  0  0  0  0  0
   -0.0249   30.7863    7.2610 C   0  0  0  0  0  0  0  0  0  0  0  0
    1.1172   30.4049    6.6113 N   0  0  0  0  0  0  0  0  0  0  0  0
    2.5827   28.6807    6.3360 N   0  0  0  0  0  0  0  0  0  0  0  0
    3.2365   27.5251    6.6032 C   0  0  0  0  0  0  0  0  0  0  0  0
    3.9871   26.9068    5.5819 C   0  0  0  0  0  0  0  0  0  0  0  0
    3.9347   25.0874    9.7381 S   0  0  0  0  0  0  0  0  0  0  0  0
    2.9329   26.1133   10.8427 C   0  0  0  0  0  0  0  0  0  0  0  0
   -2.3473   32.7449    8.2886 H   0  0  0  0  0  0  0  0  0  0  0  0
    0.3548   26.3504    8.8841 H   0  0  0  0  0  0  0  0  0  0  0  0
   -1.0756   25.9287    7.8828 H   0  0  0  0  0  0  0  0  0  0  0  0
   -2.3913   25.7635   10.0760 H   0  0  0  0  0  0  0  0  0  0  0  0
   -1.7056   23.7998    8.7901 H   0  0  0  0  0  0  0  0  0  0  0  0
   -0.0549   23.8683    9.4951 H   0  0  0  0  0  0  0  0  0  0  0  0
   -2.6643   23.3154   10.9950 H   0  0  0  0  0  0  0  0  0  0  0  0
   -1.3742   22.1268   10.6083 H   0  0  0  0  0  0  0  0  0  0  0  0
   -1.2434   22.9254   12.9699 H   0  0  0  0  0  0  0  0  0  0  0  0
    0.2221   23.3603   12.0266 H   0  0  0  0  0  0  0  0  0  0  0  0
   -2.1477   25.1942   12.6804 H   0  0  0  0  0  0  0  0  0  0  0  0
   -0.4976   25.2825   13.3847 H   0  0  0  0  0  0  0  0  0  0  0  0
    0.4575   25.8452   11.2064 H   0  0  0  0  0  0  0  0  0  0  0  0
   -0.8891   26.9759   11.5737 H   0  0  0  0  0  0  0  0  0  0  0  0
    5.2489   25.2365    5.0459 H   0  0  0  0  0  0  0  0  0  0  0  0
    5.1989   24.2194    7.3147 H   0  0  0  0  0  0  0  0  0  0  0  0
    2.7061   27.4407    8.6982 H   0  0  0  0  0  0  0  0  0  0  0  0
    0.8943   27.2670    7.4687 H   0  0  0  0  0  0  0  0  0  0  0  0
    3.0515   29.3048    5.7110 H   0  0  0  0  0  0  0  0  0  0  0  0
    4.0232   27.3508    4.5981 H   0  0  0  0  0  0  0  0  0  0  0  0
    2.9290   25.6723   11.8504 H   0  0  0  0  0  0  0  0  0  0  0  0
    3.3582   27.1268   10.8878 H   0  0  0  0  0  0  0  0  0  0  0  0
    1.9025   26.1647   10.4611 H   0  0  0  0  0  0  0  0  0  0  0  0
  1 14  1  0  0  0  0
  1 21  2  0  0  0  0
  1 22  1  0  0  0  0
  2 18  2  0  0  0  0
  2 19  1  0  0  0  0
  3  4  1  0  0  0  0
  3 16  1  0  0  0  0
  4  5  1  0  0  0  0
  4  9  1  0  0  0  0
  5  6  1  0  0  0  0
  6  7  1  0  0  0  0
  7  8  1  0  0  0  0
  8  9  1  0  0  0  0
 10 11  2  0  0  0  0
 10 24  1  0  0  0  0
 11 12  1  0  0  0  0
 12 13  2  0  0  0  0
 12 25  1  0  0  0  0
 13 23  1  0  0  0  0
 14 15  1  0  0  0  0
 15 16  1  0  0  0  0
 15 17  2  0  0  0  0
 17 18  1  0  0  0  0
 17 20  1  0  0  0  0
 19 20  2  0  0  0  0
 20 21  1  0  0  0  0
 22 23  1  0  0  0  0
 23 24  2  0  0  0  0
 25 26  1  0  0  0  0
  2 27  1  0  0  0  0
  3 28  1  0  0  0  0
  3 29  1  0  0  0  0
  4 30  1  0  0  0  0
  5 31  1  0  0  0  0
  5 32  1  0  0  0  0
  6 33  1  0  0  0  0
  6 34  1  0  0  0  0
  7 35  1  0  0  0  0
  7 36  1  0  0  0  0
  8 37  1  0  0  0  0
  8 38  1  0  0  0  0
  9 39  1  0  0  0  0
  9 40  1  0  0  0  0
 10 41  1  0  0  0  0
 11 42  1  0  0  0  0
 13 43  1  0  0  0  0
 14 44  1  0  0  0  0
 22 45  1  0  0  0  0
 24 46  1  0  0  0  0
 26 47  1  0  0  0  0
 26 48  1  0  0  0  0
 26 49  1  0  0  0  0
M  END
> <r_user_dG.exp>
-7.862

$$$$
22
  -OEChem-05192314073D
 Structure written by MMmdl.
 49 52  0     0  0  0  0  0  0999 V2000
    1.3901   29.1077    6.7935 C   0  0  0  0  0  0  0  0  0  0  0  0
   -1.6911   31.9130    8.0794 C   0  0  0  0  0  0  0  0  0  0  0  0
   -0.7437   26.3748    8.8319 C   0  0  0  0  0  0  0  0  0  0  0  0
   -1.3142   25.5567    9.9914 C   0  0  0  0  0  0  0  0  0  0  0  0
   -1.1214   24.0589    9.6854 C   0  0  0  0  0  0  0  0  0  0  0  0
   -1.5824   23.1795   10.8502 C   0  0  0  0  0  0  0  0  0  0  0  0
   -0.8551   23.5463   12.1491 C   0  0  0  0  0  0  0  0  0  0  0  0
   -1.0780   25.0277   12.4857 C   0  0  0  0  0  0  0  0  0  0  0  0
   -0.6321   25.9351   11.3273 C   0  0  0  0  0  0  0  0  0  0  0  0
    4.6903   25.7129    5.8380 C   0  0  0  0  0  0  0  0  0  0  0  0
    4.6667   25.1395    7.1233 C   0  0  0  0  0  0  0  0  0  0  0  0
    3.9496   25.7658    8.1576 C   0  0  0  0  0  0  0  0  0  0  0  0
    3.2460   26.9556    7.8985 C   0  0  0  0  0  0  0  0  0  0  0  0
    0.6302   28.2313    7.4508 N   0  0  0  0  0  0  0  0  0  0  0  0
   -0.4898   28.6252    8.0923 C   0  0  0  0  0  0  0  0  0  0  0  0
   -1.1796   27.7315    8.8832 O   0  0  0  0  0  0  0  0  0  0  0  0
   -0.8660   29.9818    8.0000 C   0  0  0  0  0  0  0  0  0  0  0  0
   -1.9251   30.7129    8.5212 N   0  0  0  0  0  0  0  0  0  0  0  0
   -0.5542   32.0464    7.3306 N   0  0  0  0  0  0  0  0  0  0  0  0
   -0.0249   30.7863    7.2610 C   0  0  0  0  0  0  0  0  0  0  0  0
    1.1172   30.4049    6.6113 N   0  0  0  0  0  0  0  0  0  0  0  0
    2.5827   28.6807    6.3360 N   0  0  0  0  0  0  0  0  0  0  0  0
    3.2365   27.5251    6.6032 C   0  0  0  0  0  0  0  0  0  0  0  0
    3.9871   26.9068    5.5819 C   0  0  0  0  0  0  0  0  0  0  0  0
    3.9347   25.0874    9.7381 S   0  0  0  0  0  0  0  0  0  0  0  0
    2.9329   26.1133   10.8427 C   0  0  0  0  0  0  0  0  0  0  0  0
   -2.3473   32.7449    8.2886 H   0  0  0  0  0  0  0  0  0  0  0  0
    0.3548   26.3504    8.8841 H   0  0  0  0  0  0  0  0  0  0  0  0
   -1.0756   25.9287    7.8828 H   0  0  0  0  0  0  0  0  0  0  0  0
   -2.3913   25.7635   10.0760 H   0  0  0  0  0  0  0  0  0  0  0  0
   -1.7056   23.7998    8.7901 H   0  0  0  0  0  0  0  0  0  0  0  0
   -0.0549   23.8683    9.4951 H   0  0  0  0  0  0  0  0  0  0  0  0
   -2.6643   23.3154   10.9950 H   0  0  0  0  0  0  0  0  0  0  0  0
   -1.3742   22.1268   10.6083 H   0  0  0  0  0  0  0  0  0  0  0  0
   -1.2434   22.9254   12.9699 H   0  0  0  0  0  0  0  0  0  0  0  0
    0.2221   23.3603   12.0266 H   0  0  0  0  0  0  0  0  0  0  0  0
   -2.1477   25.1942   12.6804 H   0  0  0  0  0  0  0  0  0  0  0  0
   -0.4976   25.2825   13.3847 H   0  0  0  0  0  0  0  0  0  0  0  0
    0.4575   25.8452   11.2064 H   0  0  0  0  0  0  0  0  0  0  0  0
   -0.8891   26.9759   11.5737 H   0  0  0  0  0  0  0  0  0  0  0  0
    5.2489   25.2365    5.0459 H   0  0  0  0  0  0  0  0  0  0  0  0
    5.1989   24.2194    7.3147 H   0  0  0  0  0  0  0  0  0  0  0  0
    2.7061   27.4407    8.6982 H   0  0  0  0  0  0  0  0  0  0  0  0
    0.8943   27.2670    7.4687 H   0  0  0  0  0  0  0  0  0  0  0  0
    1.6818   31.0231    6.0644 H   0  0  0  0  0  0  0  0  0  0  0  0
    4.0232   27.3508    4.5981 H   0  0  0  0  0  0  0  0  0  0  0  0
    2.9290   25.6723   11.8504 H   0  0  0  0  0  0  0  0  0  0  0  0
    3.3582   27.1268   10.8878 H   0  0  0  0  0  0  0  0  0  0  0  0
    1.9025   26.1647   10.4611 H   0  0  0  0  0  0  0  0  0  0  0  0
  1 14  1  0  0  0  0
  1 21  1  0  0  0  0
  1 22  2  0  0  0  0
  2 18  2  0  0  0  0
  2 19  1  0  0  0  0
  3  4  1  0  0  0  0
  3 16  1  0  0  0  0
  4  5  1  0  0  0  0
  4  9  1  0  0  0  0
  5  6  1  0  0  0  0
  6  7  1  0  0  0  0
  7  8  1  0  0  0  0
  8  9  1  0  0  0  0
 10 11  2  0  0  0  0
 10 24  1  0  0  0  0
 11 12  1  0  0  0  0
 12 13  2  0  0  0  0
 12 25  1  0  0  0  0
 13 23  1  0  0  0  0
 14 15  1  0  0  0  0
 15 16  1  0  0  0  0
 15 17  2  0  0  0  0
 17 18  1  0  0  0  0
 17 20  1  0  0  0  0
 19 20  2  0  0  0  0
 20 21  1  0  0  0  0
 22 23  1  0  0  0  0
 23 24  2  0  0  0  0
 25 26  1  0  0  0  0
  2 27  1  0  0  0  0
  3 28  1  0  0  0  0
  3 29  1  0  0  0  0
  4 30  1  0  0  0  0
  5 31  1  0  0  0  0
  5 32  1  0  0  0  0
  6 33  1  0  0  0  0
  6 34  1  0  0  0  0
  7 35  1  0  0  0  0
  7 36  1  0  0  0  0
  8 37  1  0  0  0  0
  8 38  1  0  0  0  0
  9 39  1  0  0  0  0
  9 40  1  0  0  0  0
 10 41  1  0  0  0  0
 11 42  1  0  0  0  0
 13 43  1  0  0  0  0
 14 44  1  0  0  0  0
 21 45  1  0  0  0  0
 24 46  1  0  0  0  0
 26 47  1  0  0  0  0
 26 48  1  0  0  0  0
 26 49  1  0  0  0  0
M  END
> <r_user_dG.exp>
-7.862

$$$$
22
  -OEChem-05192314073D
 Structure written by MMmdl.
 49 52  0     0  0  0  0  0  0999 V2000
    1.3901   29.1077    6.7935 C   0  0  0  0  0  0  0  0  0  0  0  0
   -1.6911   31.9130    8.0794 C   0  0  0  0  0  0  0  0  0  0  0  0
   -0.7437   26.3748    8.8319 C   0  0  0  0  0  0  0  0  0  0  0  0
   -1.3142   25.5567    9.9914 C   0  0  0  0  0  0  0  0  0  0  0  0
   -1.1214   24.0589    9.6854 C   0  0  0  0  0  0  0  0  0  0  0  0
   -1.5824   23.1795   10.8502 C   0  0  0  0  0  0  0  0  0  0  0  0
   -0.8551   23.5463   12.1491 C   0  0  0  0  0  0  0  0  0  0  0  0
   -1.0780   25.0277   12.4857 C   0  0  0  0  0  0  0  0  0  0  0  0
   -0.6321   25.9351   11.3273 C   0  0  0  0  0  0  0  0  0  0  0  0
    4.6903   25.7129    5.8380 C   0  0  0  0  0  0  0  0  0  0  0  0
    4.6667   25.1395    7.1233 C   0  0  0  0  0  0  0  0  0  0  0  0
    3.9496   25.7658    8.1576 C   0  0  0  0  0  0  0  0  0  0  0  0
    3.2460   26.9556    7.8985 C   0  0  0  0  0  0  0  0  0  0  0  0
    0.6302   28.2313    7.4508 N   0  0  0  0  0  0  0  0  0  0  0  0
   -0.4898   28.6252    8.0923 C   0  0  0  0  0  0  0  0  0  0  0  0
   -1.1796   27.7315    8.8832 O   0  0  0  0  0  0  0  0  0  0  0  0
   -0.8660   29.9818    8.0000 C   0  0  0  0  0  0  0  0  0  0  0  0
   -1.9251   30.7129    8.5212 N   0  0  0  0  0  0  0  0  0  0  0  0
   -0.5542   32.0464    7.3306 N   0  0  0  0  0  0  0  0  0  0  0  0
   -0.0249   30.7863    7.2610 C   0  0  0  0  0  0  0  0  0  0  0  0
    1.1172   30.4049    6.6113 N   0  0  0  0  0  0  0  0  0  0  0  0
    2.5827   28.6807    6.3360 N   0  0  0  0  0  0  0  0  0  0  0  0
    3.2365   27.5251    6.6032 C   0  0  0  0  0  0  0  0  0  0  0  0
    3.9871   26.9068    5.5819 C   0  0  0  0  0  0  0  0  0  0  0  0
    3.9347   25.0874    9.7381 S   0  0  0  0  0  0  0  0  0  0  0  0
    2.9329   26.1133   10.8427 C   0  0  0  0  0  0  0  0  0  0  0  0
   -2.5456   32.2197    7.4583 H   0  0  0  0  0  0  0  0  0  0  0  0
   -1.6083   32.5848    8.9465 H   0  0  0  0  0  0  0  0  0  0  0  0
    0.3548   26.3504    8.8841 H   0  0  0  0  0  0  0  0  0  0  0  0
   -1.0756   25.9287    7.8828 H   0  0  0  0  0  0  0  0  0  0  0  0
   -2.3913   25.7635   10.0760 H   0  0  0  0  0  0  0  0  0  0  0  0
   -1.7056   23.7998    8.7901 H   0  0  0  0  0  0  0  0  0  0  0  0
   -0.0549   23.8683    9.4951 H   0  0  0  0  0  0  0  0  0  0  0  0
   -2.6643   23.3154   10.9950 H   0  0  0  0  0  0  0  0  0  0  0  0
   -1.3742   22.1268   10.6083 H   0  0  0  0  0  0  0  0  0  0  0  0
   -1.2434   22.9254   12.9699 H   0  0  0  0  0  0  0  0  0  0  0  0
    0.2221   23.3603   12.0266 H   0  0  0  0  0  0  0  0  0  0  0  0
   -2.1477   25.1942   12.6804 H   0  0  0  0  0  0  0  0  0  0  0  0
   -0.4976   25.2825   13.3847 H   0  0  0  0  0  0  0  0  0  0  0  0
    0.4575   25.8452   11.2064 H   0  0  0  0  0  0  0  0  0  0  0  0
   -0.8891   26.9759   11.5737 H   0  0  0  0  0  0  0  0  0  0  0  0
    5.2489   25.2365    5.0459 H   0  0  0  0  0  0  0  0  0  0  0  0
    5.1989   24.2194    7.3147 H   0  0  0  0  0  0  0  0  0  0  0  0
    2.7061   27.4407    8.6982 H   0  0  0  0  0  0  0  0  0  0  0  0
    3.0515   29.3048    5.7110 H   0  0  0  0  0  0  0  0  0  0  0  0
    4.0232   27.3508    4.5981 H   0  0  0  0  0  0  0  0  0  0  0  0
    2.9290   25.6723   11.8504 H   0  0  0  0  0  0  0  0  0  0  0  0
    3.3582   27.1268   10.8878 H   0  0  0  0  0  0  0  0  0  0  0  0
    1.9025   26.1647   10.4611 H   0  0  0  0  0  0  0  0  0  0  0  0
  1 14  1  0  0  0  0
  1 21  2  0  0  0  0
  1 22  1  0  0  0  0
  2 18  1  0  0  0  0
  2 19  1  0  0  0  0
  3  4  1  0  0  0  0
  3 16  1  0  0  0  0
  4  5  1  0  0  0  0
  4  9  1  0  0  0  0
  5  6  1  0  0  0  0
  6  7  1  0  0  0  0
  7  8  1  0  0  0  0
  8  9  1  0  0  0  0
 10 11  2  0  0  0  0
 10 24  1  0  0  0  0
 11 12  1  0  0  0  0
 12 13  2  0  0  0  0
 12 25  1  0  0  0  0
 13 23  1  0  0  0  0
 14 15  2  0  0  0  0
 15 16  1  0  0  0  0
 15 17  1  0  0  0  0
 17 18  2  0  0  0  0
 17 20  1  0  0  0  0
 19 20  2  0  0  0  0
 20 21  1  0  0  0  0
 22 23  1  0  0  0  0
 23 24  2  0  0  0  0
 25 26  1  0  0  0  0
  2 27  1  0  0  0  0
  2 28  1  0  0  0  0
  3 29  1  0  0  0  0
  3 30  1  0  0  0  0
  4 31  1  0  0  0  0
  5 32  1  0  0  0  0
  5 33  1  0  0  0  0
  6 34  1  0  0  0  0
  6 35  1  0  0  0  0
  7 36  1  0  0  0  0
  7 37  1  0  0  0  0
  8 38  1  0  0  0  0
  8 39  1  0  0  0  0
  9 40  1  0  0  0  0
  9 41  1  0  0  0  0
 10 42  1  0  0  0  0
 11 43  1  0  0  0  0
 13 44  1  0  0  0  0
 22 45  1  0  0  0  0
 24 46  1  0  0  0  0
 26 47  1  0  0  0  0
 26 48  1  0  0  0  0
 26 49  1  0  0  0  0
M  END
> <r_user_dG.exp>
-7.862

$$$$
22
  -OEChem-05192314073D
 Structure written by MMmdl.
 49 52  0     0  0  0  0  0  0999 V2000
    1.3901   29.1077    6.7935 C   0  0  0  0  0  0  0  0  0  0  0  0
   -1.6911   31.9130    8.0794 C   0  0  0  0  0  0  0  0  0  0  0  0
   -0.7437   26.3748    8.8319 C   0  0  0  0  0  0  0  0  0  0  0  0
   -1.3142   25.5567    9.9914 C   0  0  0  0  0  0  0  0  0  0  0  0
   -1.1214   24.0589    9.6854 C   0  0  0  0  0  0  0  0  0  0  0  0
   -1.5824   23.1795   10.8502 C   0  0  0  0  0  0  0  0  0  0  0  0
   -0.8551   23.5463   12.1491 C   0  0  0  0  0  0  0  0  0  0  0  0
   -1.0780   25.0277   12.4857 C   0  0  0  0  0  0  0  0  0  0  0  0
   -0.6321   25.9351   11.3273 C   0  0  0  0  0  0  0  0  0  0  0  0
    4.6903   25.7129    5.8380 C   0  0  0  0  0  0  0  0  0  0  0  0
    4.6667   25.1395    7.1233 C   0  0  0  0  0  0  0  0  0  0  0  0
    3.9496   25.7658    8.1576 C   0  0  0  0  0  0  0  0  0  0  0  0
    3.2460   26.9556    7.8985 C   0  0  0  0  0  0  0  0  0  0  0  0
    0.6302   28.2313    7.4508 N   0  0  0  0  0  0  0  0  0  0  0  0
   -0.4898   28.6252    8.0923 C   0  0  0  0  0  0  0  0  0  0  0  0
   -1.1796   27.7315    8.8832 O   0  0  0  0  0  0  0  0  0  0  0  0
   -0.8660   29.9818    8.0000 C   0  0  0  0  0  0  0  0  0  0  0  0
   -1.9251   30.7129    8.5212 N   0  0  0  0  0  0  0  0  0  0  0  0
   -0.5542   32.0464    7.3306 N   0  0  0  0  0  0  0  0  0  0  0  0
   -0.0249   30.7863    7.2610 C   0  0  0  0  0  0  0  0  0  0  0  0
    1.1172   30.4049    6.6113 N   0  0  0  0  0  0  0  0  0  0  0  0
    2.5827   28.6807    6.3360 N   0  0  0  0  0  0  0  0  0  0  0  0
    3.2365   27.5251    6.6032 C   0  0  0  0  0  0  0  0  0  0  0  0
    3.9871   26.9068    5.5819 C   0  0  0  0  0  0  0  0  0  0  0  0
    3.9347   25.0874    9.7381 S   0  0  0  0  0  0  0  0  0  0  0  0
    2.9329   26.1133   10.8427 C   0  0  0  0  0  0  0  0  0  0  0  0
   -2.5456   32.2197    7.4583 H   0  0  0  0  0  0  0  0  0  0  0  0
   -1.6083   32.5848    8.9465 H   0  0  0  0  0  0  0  0  0  0  0  0
    0.3548   26.3504    8.8841 H   0  0  0  0  0  0  0  0  0  0  0  0
   -1.0756   25.9287    7.8828 H   0  0  0  0  0  0  0  0  0  0  0  0
   -2.3913   25.7635   10.0760 H   0  0  0  0  0  0  0  0  0  0  0  0
   -1.7056   23.7998    8.7901 H   0  0  0  0  0  0  0  0  0  0  0  0
   -0.0549   23.8683    9.4951 H   0  0  0  0  0  0  0  0  0  0  0  0
   -2.6643   23.3154   10.9950 H   0  0  0  0  0  0  0  0  0  0  0  0
   -1.3742   22.1268   10.6083 H   0  0  0  0  0  0  0  0  0  0  0  0
   -1.2434   22.9254   12.9699 H   0  0  0  0  0  0  0  0  0  0  0  0
    0.2221   23.3603   12.0266 H   0  0  0  0  0  0  0  0  0  0  0  0
   -2.1477   25.1942   12.6804 H   0  0  0  0  0  0  0  0  0  0  0  0
   -0.4976   25.2825   13.3847 H   0  0  0  0  0  0  0  0  0  0  0  0
    0.4575   25.8452   11.2064 H   0  0  0  0  0  0  0  0  0  0  0  0
   -0.8891   26.9759   11.5737 H   0  0  0  0  0  0  0  0  0  0  0  0
    5.2489   25.2365    5.0459 H   0  0  0  0  0  0  0  0  0  0  0  0
    5.1989   24.2194    7.3147 H   0  0  0  0  0  0  0  0  0  0  0  0
    2.7061   27.4407    8.6982 H   0  0  0  0  0  0  0  0  0  0  0  0
    1.6818   31.0231    6.0644 H   0  0  0  0  0  0  0  0  0  0  0  0
    4.0232   27.3508    4.5981 H   0  0  0  0  0  0  0  0  0  0  0  0
    2.9290   25.6723   11.8504 H   0  0  0  0  0  0  0  0  0  0  0  0
    3.3582   27.1268   10.8878 H   0  0  0  0  0  0  0  0  0  0  0  0
    1.9025   26.1647   10.4611 H   0  0  0  0  0  0  0  0  0  0  0  0
  1 14  1  0  0  0  0
  1 21  1  0  0  0  0
  1 22  2  0  0  0  0
  2 18  1  0  0  0  0
  2 19  1  0  0  0  0
  3  4  1  0  0  0  0
  3 16  1  0  0  0  0
  4  5  1  0  0  0  0
  4  9  1  0  0  0  0
  5  6  1  0  0  0  0
  6  7  1  0  0  0  0
  7  8  1  0  0  0  0
  8  9  1  0  0  0  0
 10 11  2  0  0  0  0
 10 24  1  0  0  0  0
 11 12  1  0  0  0  0
 12 13  2  0  0  0  0
 12 25  1  0  0  0  0
 13 23  1  0  0  0  0
 14 15  2  0  0  0  0
 15 16  1  0  0  0  0
 15 17  1  0  0  0  0
 17 18  2  0  0  0  0
 17 20  1  0  0  0  0
 19 20  2  0  0  0  0
 20 21  1  0  0  0  0
 22 23  1  0  0  0  0
 23 24  2  0  0  0  0
 25 26  1  0  0  0  0
  2 27  1  0  0  0  0
  2 28  1  0  0  0  0
  3 29  1  0  0  0  0
  3 30  1  0  0  0  0
  4 31  1  0  0  0  0
  5 32  1  0  0  0  0
  5 33  1  0  0  0  0
  6 34  1  0  0  0  0
  6 35  1  0  0  0  0
  7 36  1  0  0  0  0
  7 37  1  0  0  0  0
  8 38  1  0  0  0  0
  8 39  1  0  0  0  0
  9 40  1  0  0  0  0
  9 41  1  0  0  0  0
 10 42  1  0  0  0  0
 11 43  1  0  0  0  0
 13 44  1  0  0  0  0
 21 45  1  0  0  0  0
 24 46  1  0  0  0  0
 26 47  1  0  0  0  0
 26 48  1  0  0  0  0
 26 49  1  0  0  0  0
M  END
> <r_user_dG.exp>
-7.862

$$$$
22
  -OEChem-05192314073D
 Structure written by MMmdl.
 49 52  0     0  0  0  0  0  0999 V2000
    1.3901   29.1077    6.7935 C   0  0  0  0  0  0  0  0  0  0  0  0
   -1.6911   31.9130    8.0794 C   0  0  0  0  0  0  0  0  0  0  0  0
   -0.7437   26.3748    8.8319 C   0  0  0  0  0  0  0  0  0  0  0  0
   -1.3142   25.5567    9.9914 C   0  0  0  0  0  0  0  0  0  0  0  0
   -1.1214   24.0589    9.6854 C   0  0  0  0  0  0  0  0  0  0  0  0
   -1.5824   23.1795   10.8502 C   0  0  0  0  0  0  0  0  0  0  0  0
   -0.8551   23.5463   12.1491 C   0  0  0  0  0  0  0  0  0  0  0  0
   -1.0780   25.0277   12.4857 C   0  0  0  0  0  0  0  0  0  0  0  0
   -0.6321   25.9351   11.3273 C   0  0  0  0  0  0  0  0  0  0  0  0
    4.6903   25.7129    5.8380 C   0  0  0  0  0  0  0  0  0  0  0  0
    4.6667   25.1395    7.1233 C   0  0  0  0  0  0  0  0  0  0  0  0
    3.9496   25.7658    8.1576 C   0  0  0  0  0  0  0  0  0  0  0  0
    3.2460   26.9556    7.8985 C   0  0  0  0  0  0  0  0  0  0  0  0
    0.6302   28.2313    7.4508 N   0  0  0  0  0  0  0  0  0  0  0  0
   -0.4898   28.6252    8.0923 C   0  0  0  0  0  0  0  0  0  0  0  0
   -1.1796   27.7315    8.8832 O   0  0  0  0  0  0  0  0  0  0  0  0
   -0.8660   29.9818    8.0000 C   0  0  0  0  0  0  0  0  0  0  0  0
   -1.9251   30.7129    8.5212 N   0  0  0  0  0  0  0  0  0  0  0  0
   -0.5542   32.0464    7.3306 N   0  0  0  0  0  0  0  0  0  0  0  0
   -0.0249   30.7863    7.2610 C   0  0  0  0  0  0  0  0  0  0  0  0
    1.1172   30.4049    6.6113 N   0  0  0  0  0  0  0  0  0  0  0  0
    2.5827   28.6807    6.3360 N   0  0  0  0  0  0  0  0  0  0  0  0
    3.2365   27.5251    6.6032 C   0  0  0  0  0  0  0  0  0  0  0  0
    3.9871   26.9068    5.5819 C   0  0  0  0  0  0  0  0  0  0  0  0
    3.9347   25.0874    9.7381 S   0  0  0  0  0  0  0  0  0  0  0  0
    2.9329   26.1133   10.8427 C   0  0  0  0  0  0  0  0  0  0  0  0
   -2.3473   32.7449    8.2886 H   0  0  0  0  0  0  0  0  0  0  0  0
    0.3548   26.3504    8.8841 H   0  0  0  0  0  0  0  0  0  0  0  0
   -1.0756   25.9287    7.8828 H   0  0  0  0  0  0  0  0  0  0  0  0
   -2.3913   25.7635   10.0760 H   0  0  0  0  0  0  0  0  0  0  0  0
   -1.7056   23.7998    8.7901 H   0  0  0  0  0  0  0  0  0  0  0  0
   -0.0549   23.8683    9.4951 H   0  0  0  0  0  0  0  0  0  0  0  0
   -2.6643   23.3154   10.9950 H   0  0  0  0  0  0  0  0  0  0  0  0
   -1.3742   22.1268   10.6083 H   0  0  0  0  0  0  0  0  0  0  0  0
   -1.2434   22.9254   12.9699 H   0  0  0  0  0  0  0  0  0  0  0  0
    0.2221   23.3603   12.0266 H   0  0  0  0  0  0  0  0  0  0  0  0
   -2.1477   25.1942   12.6804 H   0  0  0  0  0  0  0  0  0  0  0  0
   -0.4976   25.2825   13.3847 H   0  0  0  0  0  0  0  0  0  0  0  0
    0.4575   25.8452   11.2064 H   0  0  0  0  0  0  0  0  0  0  0  0
   -0.8891   26.9759   11.5737 H   0  0  0  0  0  0  0  0  0  0  0  0
    5.2489   25.2365    5.0459 H   0  0  0  0  0  0  0  0  0  0  0  0
    4.2475   24.1285    7.0127 H   0  0  0  0  0  0  0  0  0  0  0  0
    5.7118   25.0684    7.4589 H   0  0  0  0  0  0  0  0  0  0  0  0
    2.7061   27.4407    8.6982 H   0  0  0  0  0  0  0  0  0  0  0  0
   -2.6805   30.3952    9.0943 H   0  0  0  0  0  0  0  0  0  0  0  0
    4.0232   27.3508    4.5981 H   0  0  0  0  0  0  0  0  0  0  0  0
    2.9290   25.6723   11.8504 H   0  0  0  0  0  0  0  0  0  0  0  0
    3.3582   27.1268   10.8878 H   0  0  0  0  0  0  0  0  0  0  0  0
    1.9025   26.1647   10.4611 H   0  0  0  0  0  0  0  0  0  0  0  0
  1 14  2  0  0  0  0
  1 21  1  0  0  0  0
  1 22  1  0  0  0  0
  2 18  1  0  0  0  0
  2 19  2  0  0  0  0
  3  4  1  0  0  0  0
  3 16  1  0  0  0  0
  4  5  1  0  0  0  0
  4  9  1  0  0  0  0
  5  6  1  0  0  0  0
  6  7  1  0  0  0  0
  7  8  1  0  0  0  0
  8  9  1  0  0  0  0
 10 11  1  0  0  0  0
 10 24  2  0  0  0  0
 11 12  1  0  0  0  0
 12 13  2  0  0  0  0
 12 25  1  0  0  0  0
 13 23  1  0  0  0  0
 14 15  1  0  0  0  0
 15 16  1  0  0  0  0
 15 17  2  0  0  0  0
 17 18  1  0  0  0  0
 17 20  1  0  0  0  0
 19 20  1  0  0  0  0
 20 21  2  0  0  0  0
 22 23  2  3  0  0  0
 23 24  1  0  0  0  0
 25 26  1  0  0  0  0
  2 27  1  0  0  0  0
  3 28  1  0  0  0  0
  3 29  1  0  0  0  0
  4 30  1  0  0  0  0
  5 31  1  0  0  0  0
  5 32  1  0  0  0  0
  6 33  1  0  0  0  0
  6 34  1  0  0  0  0
  7 35  1  0  0  0  0
  7 36  1  0  0  0  0
  8 37  1  0  0  0  0
  8 38  1  0  0  0  0
  9 39  1  0  0  0  0
  9 40  1  0  0  0  0
 10 41  1  0  0  0  0
 11 42  1  0  0  0  0
 11 43  1  0  0  0  0
 13 44  1  0  0  0  0
 18 45  1  0  0  0  0
 24 46  1  0  0  0  0
 26 47  1  0  0  0  0
 26 48  1  0  0  0  0
 26 49  1  0  0  0  0
M  END
> <r_user_dG.exp>
-7.862

$$$$
22
  -OEChem-05192314073D
 Structure written by MMmdl.
 49 52  0     0  0  0  0  0  0999 V2000
    1.3901   29.1077    6.7935 C   0  0  0  0  0  0  0  0  0  0  0  0
   -1.6911   31.9130    8.0794 C   0  0  0  0  0  0  0  0  0  0  0  0
   -0.7437   26.3748    8.8319 C   0  0  0  0  0  0  0  0  0  0  0  0
   -1.3142   25.5567    9.9914 C   0  0  0  0  0  0  0  0  0  0  0  0
   -1.1214   24.0589    9.6854 C   0  0  0  0  0  0  0  0  0  0  0  0
   -1.5824   23.1795   10.8502 C   0  0  0  0  0  0  0  0  0  0  0  0
   -0.8551   23.5463   12.1491 C   0  0  0  0  0  0  0  0  0  0  0  0
   -1.0780   25.0277   12.4857 C   0  0  0  0  0  0  0  0  0  0  0  0
   -0.6321   25.9351   11.3273 C   0  0  0  0  0  0  0  0  0  0  0  0
    4.6903   25.7129    5.8380 C   0  0  0  0  0  0  0  0  0  0  0  0
    4.6667   25.1395    7.1233 C   0  0  0  0  0  0  0  0  0  0  0  0
    3.9496   25.7658    8.1576 C   0  0  0  0  0  0  0  0  0  0  0  0
    3.2460   26.9556    7.8985 C   0  0  0  0  0  0  0  0  0  0  0  0
    0.6302   28.2313    7.4508 N   0  0  0  0  0  0  0  0  0  0  0  0
   -0.4898   28.6252    8.0923 C   0  0  0  0  0  0  0  0  0  0  0  0
   -1.1796   27.7315    8.8832 O   0  0  0  0  0  0  0  0  0  0  0  0
   -0.8660   29.9818    8.0000 C   0  0  0  0  0  0  0  0  0  0  0  0
   -1.9251   30.7129    8.5212 N   0  0  0  0  0  0  0  0  0  0  0  0
   -0.5542   32.0464    7.3306 N   0  0  0  0  0  0  0  0  0  0  0  0
   -0.0249   30.7863    7.2610 C   0  0  0  0  0  0  0  0  0  0  0  0
    1.1172   30.4049    6.6113 N   0  0  0  0  0  0  0  0  0  0  0  0
    2.5827   28.6807    6.3360 N   0  0  0  0  0  0  0  0  0  0  0  0
    3.2365   27.5251    6.6032 C   0  0  0  0  0  0  0  0  0  0  0  0
    3.9871   26.9068    5.5819 C   0  0  0  0  0  0  0  0  0  0  0  0
    3.9347   25.0874    9.7381 S   0  0  0  0  0  0  0  0  0  0  0  0
    2.9329   26.1133   10.8427 C   0  0  0  0  0  0  0  0  0  0  0  0
   -2.3473   32.7449    8.2886 H   0  0  0  0  0  0  0  0  0  0  0  0
    0.3548   26.3504    8.8841 H   0  0  0  0  0  0  0  0  0  0  0  0
   -1.0756   25.9287    7.8828 H   0  0  0  0  0  0  0  0  0  0  0  0
   -2.3913   25.7635   10.0760 H   0  0  0  0  0  0  0  0  0  0  0  0
   -1.7056   23.7998    8.7901 H   0  0  0  0  0  0  0  0  0  0  0  0
   -0.0549   23.8683    9.4951 H   0  0  0  0  0  0  0  0  0  0  0  0
   -2.6643   23.3154   10.9950 H   0  0  0  0  0  0  0  0  0  0  0  0
   -1.3742   22.1268   10.6083 H   0  0  0  0  0  0  0  0  0  0  0  0
   -1.2434   22.9254   12.9699 H   0  0  0  0  0  0  0  0  0  0  0  0
    0.2221   23.3603   12.0266 H   0  0  0  0  0  0  0  0  0  0  0  0
   -2.1477   25.1942   12.6804 H   0  0  0  0  0  0  0  0  0  0  0  0
   -0.4976   25.2825   13.3847 H   0  0  0  0  0  0  0  0  0  0  0  0
    0.4575   25.8452   11.2064 H   0  0  0  0  0  0  0  0  0  0  0  0
   -0.8891   26.9759   11.5737 H   0  0  0  0  0  0  0  0  0  0  0  0
    5.2489   25.2365    5.0459 H   0  0  0  0  0  0  0  0  0  0  0  0
    4.2475   24.1285    7.0127 H   0  0  0  0  0  0  0  0  0  0  0  0
    5.7118   25.0684    7.4589 H   0  0  0  0  0  0  0  0  0  0  0  0
    2.7061   27.4407    8.6982 H   0  0  0  0  0  0  0  0  0  0  0  0
   -0.1890   32.8832    6.9226 H   0  0  0  0  0  0  0  0  0  0  0  0
    4.0232   27.3508    4.5981 H   0  0  0  0  0  0  0  0  0  0  0  0
    2.9290   25.6723   11.8504 H   0  0  0  0  0  0  0  0  0  0  0  0
    3.3582   27.1268   10.8878 H   0  0  0  0  0  0  0  0  0  0  0  0
    1.9025   26.1647   10.4611 H   0  0  0  0  0  0  0  0  0  0  0  0
  1 14  2  0  0  0  0
  1 21  1  0  0  0  0
  1 22  1  0  0  0  0
  2 18  2  0  0  0  0
  2 19  1  0  0  0  0
  3  4  1  0  0  0  0
  3 16  1  0  0  0  0
  4  5  1  0  0  0  0
  4  9  1  0  0  0  0
  5  6  1  0  0  0  0
  6  7  1  0  0  0  0
  7  8  1  0  0  0  0
  8  9  1  0  0  0  0
 10 11  1  0  0  0  0
 10 24  2  0  0  0  0
 11 12  1  0  0  0  0
 12 13  2  0  0  0  0
 12 25  1  0  0  0  0
 13 23  1  0  0  0  0
 14 15  1  0  0  0  0
 15 16  1  0  0  0  0
 15 17  2  0  0  0  0
 17 18  1  0  0  0  0
 17 20  1  0  0  0  0
 19 20  1  0  0  0  0
 20 21  2  0  0  0  0
 22 23  2  3  0  0  0
 23 24  1  0  0  0  0
 25 26  1  0  0  0  0
  2 27  1  0  0  0  0
  3 28  1  0  0  0  0
  3 29  1  0  0  0  0
  4 30  1  0  0  0  0
  5 31  1  0  0  0  0
  5 32  1  0  0  0  0
  6 33  1  0  0  0  0
  6 34  1  0  0  0  0
  7 35  1  0  0  0  0
  7 36  1  0  0  0  0
  8 37  1  0  0  0  0
  8 38  1  0  0  0  0
  9 39  1  0  0  0  0
  9 40  1  0  0  0  0
 10 41  1  0  0  0  0
 11 42  1  0  0  0  0
 11 43  1  0  0  0  0
 13 44  1  0  0  0  0
 19 45  1  0  0  0  0
 24 46  1  0  0  0  0
 26 47  1  0  0  0  0
 26 48  1  0  0  0  0
 26 49  1  0  0  0  0
M  END
> <r_user_dG.exp>
-7.862

$$$$
22
  -OEChem-05192314073D
 Structure written by MMmdl.
 49 52  0     0  0  0  0  0  0999 V2000
    1.3901   29.1077    6.7935 C   0  0  0  0  0  0  0  0  0  0  0  0
   -1.6911   31.9130    8.0794 C   0  0  0  0  0  0  0  0  0  0  0  0
   -0.7437   26.3748    8.8319 C   0  0  0  0  0  0  0  0  0  0  0  0
   -1.3142   25.5567    9.9914 C   0  0  0  0  0  0  0  0  0  0  0  0
   -1.1214   24.0589    9.6854 C   0  0  0  0  0  0  0  0  0  0  0  0
   -1.5824   23.1795   10.8502 C   0  0  0  0  0  0  0  0  0  0  0  0
   -0.8551   23.5463   12.1491 C   0  0  0  0  0  0  0  0  0  0  0  0
   -1.0780   25.0277   12.4857 C   0  0  0  0  0  0  0  0  0  0  0  0
   -0.6321   25.9351   11.3273 C   0  0  0  0  0  0  0  0  0  0  0  0
    4.6903   25.7129    5.8380 C   0  0  0  0  0  0  0  0  0  0  0  0
    4.6667   25.1395    7.1233 C   0  0  0  0  0  0  0  0  0  0  0  0
    3.9496   25.7658    8.1576 C   0  0  0  0  0  0  0  0  0  0  0  0
    3.2460   26.9556    7.8985 C   0  0  0  0  0  0  0  0  0  0  0  0
    0.6302   28.2313    7.4508 N   0  0  0  0  0  0  0  0  0  0  0  0
   -0.4898   28.6252    8.0923 C   0  0  0  0  0  0  0  0  0  0  0  0
   -1.1796   27.7315    8.8832 O   0  0  0  0  0  0  0  0  0  0  0  0
   -0.8660   29.9818    8.0000 C   0  0  0  0  0  0  0  0  0  0  0  0
   -1.9251   30.7129    8.5212 N   0  0  0  0  0  0  0  0  0  0  0  0
   -0.5542   32.0464    7.3306 N   0  0  0  0  0  0  0  0  0  0  0  0
   -0.0249   30.7863    7.2610 C   0  0  0  0  0  0  0  0  0  0  0  0
    1.1172   30.4049    6.6113 N   0  0  0  0  0  0  0  0  0  0  0  0
    2.5827   28.6807    6.3360 N   0  0  0  0  0  0  0  0  0  0  0  0
    3.2365   27.5251    6.6032 C   0  0  0  0  0  0  0  0  0  0  0  0
    3.9871   26.9068    5.5819 C   0  0  0  0  0  0  0  0  0  0  0  0
    3.9347   25.0874    9.7381 S   0  0  0  0  0  0  0  0  0  0  0  0
    2.9329   26.1133   10.8427 C   0  0  0  0  0  0  0  0  0  0  0  0
   -2.3473   32.7449    8.2886 H   0  0  0  0  0  0  0  0  0  0  0  0
    0.3548   26.3504    8.8841 H   0  0  0  0  0  0  0  0  0  0  0  0
   -1.0756   25.9287    7.8828 H   0  0  0  0  0  0  0  0  0  0  0  0
   -2.3913   25.7635   10.0760 H   0  0  0  0  0  0  0  0  0  0  0  0
   -1.7056   23.7998    8.7901 H   0  0  0  0  0  0  0  0  0  0  0  0
   -0.0549   23.8683    9.4951 H   0  0  0  0  0  0  0  0  0  0  0  0
   -2.6643   23.3154   10.9950 H   0  0  0  0  0  0  0  0  0  0  0  0
   -1.3742   22.1268   10.6083 H   0  0  0  0  0  0  0  0  0  0  0  0
   -1.2434   22.9254   12.9699 H   0  0  0  0  0  0  0  0  0  0  0  0
    0.2221   23.3603   12.0266 H   0  0  0  0  0  0  0  0  0  0  0  0
   -2.1477   25.1942   12.6804 H   0  0  0  0  0  0  0  0  0  0  0  0
   -0.4976   25.2825   13.3847 H   0  0  0  0  0  0  0  0  0  0  0  0
    0.4575   25.8452   11.2064 H   0  0  0  0  0  0  0  0  0  0  0  0
   -0.8891   26.9759   11.5737 H   0  0  0  0  0  0  0  0  0  0  0  0
    5.2489   25.2365    5.0459 H   0  0  0  0  0  0  0  0  0  0  0  0
    5.1989   24.2194    7.3147 H   0  0  0  0  0  0  0  0  0  0  0  0
    2.7061   27.4407    8.6982 H   0  0  0  0  0  0  0  0  0  0  0  0
   -2.6805   30.3952    9.0943 H   0  0  0  0  0  0  0  0  0  0  0  0
    4.7300   27.6448    5.2450 H   0  0  0  0  0  0  0  0  0  0  0  0
    3.2866   26.6910    4.7617 H   0  0  0  0  0  0  0  0  0  0  0  0
    2.9290   25.6723   11.8504 H   0  0  0  0  0  0  0  0  0  0  0  0
    3.3582   27.1268   10.8878 H   0  0  0  0  0  0  0  0  0  0  0  0
    1.9025   26.1647   10.4611 H   0  0  0  0  0  0  0  0  0  0  0  0
  1 14  2  0  0  0  0
  1 21  1  0  0  0  0
  1 22  1  0  0  0  0
  2 18  1  0  0  0  0
  2 19  2  0  0  0  0
  3  4  1  0  0  0  0
  3 16  1  0  0  0  0
  4  5  1  0  0  0  0
  4  9  1  0  0  0  0
  5  6  1  0  0  0  0
  6  7  1  0  0  0  0
  7  8  1  0  0  0  0
  8  9  1  0  0  0  0
 10 11  2  0  0  0  0
 10 24  1  0  0  0  0
 11 12  1  0  0  0  0
 12 13  2  0  0  0  0
 12 25  1  0  0  0  0
 13 23  1  0  0  0  0
 14 15  1  0  0  0  0
 15 16  1  0  0  0  0
 15 17  2  0  0  0  0
 17 18  1  0  0  0  0
 17 20  1  0  0  0  0
 19 20  1  0  0  0  0
 20 21  2  0  0  0  0
 22 23  2  3  0  0  0
 23 24  1  0  0  0  0
 25 26  1  0  0  0  0
  2 27  1  0  0  0  0
  3 28  1  0  0  0  0
  3 29  1  0  0  0  0
  4 30  1  0  0  0  0
  5 31  1  0  0  0  0
  5 32  1  0  0  0  0
  6 33  1  0  0  0  0
  6 34  1  0  0  0  0
  7 35  1  0  0  0  0
  7 36  1  0  0  0  0
  8 37  1  0  0  0  0
  8 38  1  0  0  0  0
  9 39  1  0  0  0  0
  9 40  1  0  0  0  0
 10 41  1  0  0  0  0
 11 42  1  0  0  0  0
 13 43  1  0  0  0  0
 18 44  1  0  0  0  0
 24 45  1  0  0  0  0
 24 46  1  0  0  0  0
 26 47  1  0  0  0  0
 26 48  1  0  0  0  0
 26 49  1  0  0  0  0
M  END
> <r_user_dG.exp>
-7.862

$$$$
22
  -OEChem-05192314073D
 Structure written by MMmdl.
 49 52  0     0  0  0  0  0  0999 V2000
    1.3901   29.1077    6.7935 C   0  0  0  0  0  0  0  0  0  0  0  0
   -1.6911   31.9130    8.0794 C   0  0  0  0  0  0  0  0  0  0  0  0
   -0.7437   26.3748    8.8319 C   0  0  0  0  0  0  0  0  0  0  0  0
   -1.3142   25.5567    9.9914 C   0  0  0  0  0  0  0  0  0  0  0  0
   -1.1214   24.0589    9.6854 C   0  0  0  0  0  0  0  0  0  0  0  0
   -1.5824   23.1795   10.8502 C   0  0  0  0  0  0  0  0  0  0  0  0
   -0.8551   23.5463   12.1491 C   0  0  0  0  0  0  0  0  0  0  0  0
   -1.0780   25.0277   12.4857 C   0  0  0  0  0  0  0  0  0  0  0  0
   -0.6321   25.9351   11.3273 C   0  0  0  0  0  0  0  0  0  0  0  0
    4.6903   25.7129    5.8380 C   0  0  0  0  0  0  0  0  0  0  0  0
    4.6667   25.1395    7.1233 C   0  0  0  0  0  0  0  0  0  0  0  0
    3.9496   25.7658    8.1576 C   0  0  0  0  0  0  0  0  0  0  0  0
    3.2460   26.9556    7.8985 C   0  0  0  0  0  0  0  0  0  0  0  0
    0.6302   28.2313    7.4508 N   0  0  0  0  0  0  0  0  0  0  0  0
   -0.4898   28.6252    8.0923 C   0  0  0  0  0  0  0  0  0  0  0  0
   -1.1796   27.7315    8.8832 O   0  0  0  0  0  0  0  0  0  0  0  0
   -0.8660   29.9818    8.0000 C   0  0  0  0  0  0  0  0  0  0  0  0
   -1.9251   30.7129    8.5212 N   0  0  0  0  0  0  0  0  0  0  0  0
   -0.5542   32.0464    7.3306 N   0  0  0  0  0  0  0  0  0  0  0  0
   -0.0249   30.7863    7.2610 C   0  0  0  0  0  0  0  0  0  0  0  0
    1.1172   30.4049    6.6113 N   0  0  0  0  0  0  0  0  0  0  0  0
    2.5827   28.6807    6.3360 N   0  0  0  0  0  0  0  0  0  0  0  0
    3.2365   27.5251    6.6032 C   0  0  0  0  0  0  0  0  0  0  0  0
    3.9871   26.9068    5.5819 C   0  0  0  0  0  0  0  0  0  0  0  0
    3.9347   25.0874    9.7381 S   0  0  0  0  0  0  0  0  0  0  0  0
    2.9329   26.1133   10.8427 C   0  0  0  0  0  0  0  0  0  0  0  0
   -2.3473   32.7449    8.2886 H   0  0  0  0  0  0  0  0  0  0  0  0
    0.3548   26.3504    8.8841 H   0  0  0  0  0  0  0  0  0  0  0  0
   -1.0756   25.9287    7.8828 H   0  0  0  0  0  0  0  0  0  0  0  0
   -2.3913   25.7635   10.0760 H   0  0  0  0  0  0  0  0  0  0  0  0
   -1.7056   23.7998    8.7901 H   0  0  0  0  0  0  0  0  0  0  0  0
   -0.0549   23.8683    9.4951 H   0  0  0  0  0  0  0  0  0  0  0  0
   -2.6643   23.3154   10.9950 H   0  0  0  0  0  0  0  0  0  0  0  0
   -1.3742   22.1268   10.6083 H   0  0  0  0  0  0  0  0  0  0  0  0
   -1.2434   22.9254   12.9699 H   0  0  0  0  0  0  0  0  0  0  0  0
    0.2221   23.3603   12.0266 H   0  0  0  0  0  0  0  0  0  0  0  0
   -2.1477   25.1942   12.6804 H   0  0  0  0  0  0  0  0  0  0  0  0
   -0.4976   25.2825   13.3847 H   0  0  0  0  0  0  0  0  0  0  0  0
    0.4575   25.8452   11.2064 H   0  0  0  0  0  0  0  0  0  0  0  0
   -0.8891   26.9759   11.5737 H   0  0  0  0  0  0  0  0  0  0  0  0
    5.2489   25.2365    5.0459 H   0  0  0  0  0  0  0  0  0  0  0  0
    5.1989   24.2194    7.3147 H   0  0  0  0  0  0  0  0  0  0  0  0
    2.7061   27.4407    8.6982 H   0  0  0  0  0  0  0  0  0  0  0  0
   -0.1890   32.8832    6.9226 H   0  0  0  0  0  0  0  0  0  0  0  0
    4.7300   27.6448    5.2450 H   0  0  0  0  0  0  0  0  0  0  0  0
    3.2866   26.6910    4.7617 H   0  0  0  0  0  0  0  0  0  0  0  0
    2.9290   25.6723   11.8504 H   0  0  0  0  0  0  0  0  0  0  0  0
    3.3582   27.1268   10.8878 H   0  0  0  0  0  0  0  0  0  0  0  0
    1.9025   26.1647   10.4611 H   0  0  0  0  0  0  0  0  0  0  0  0
  1 14  2  0  0  0  0
  1 21  1  0  0  0  0
  1 22  1  0  0  0  0
  2 18  2  0  0  0  0
  2 19  1  0  0  0  0
  3  4  1  0  0  0  0
  3 16  1  0  0  0  0
  4  5  1  0  0  0  0
  4  9  1  0  0  0  0
  5  6  1  0  0  0  0
  6  7  1  0  0  0  0
  7  8  1  0  0  0  0
  8  9  1  0  0  0  0
 10 11  2  0  0  0  0
 10 24  1  0  0  0  0
 11 12  1  0  0  0  0
 12 13  2  0  0  0  0
 12 25  1  0  0  0  0
 13 23  1  0  0  0  0
 14 15  1  0  0  0  0
 15 16  1  0  0  0  0
 15 17  2  0  0  0  0
 17 18  1  0  0  0  0
 17 20  1  0  0  0  0
 19 20  1  0  0  0  0
 20 21  2  0  0  0  0
 22 23  2  3  0  0  0
 23 24  1  0  0  0  0
 25 26  1  0  0  0  0
  2 27  1  0  0  0  0
  3 28  1  0  0  0  0
  3 29  1  0  0  0  0
  4 30  1  0  0  0  0
  5 31  1  0  0  0  0
  5 32  1  0  0  0  0
  6 33  1  0  0  0  0
  6 34  1  0  0  0  0
  7 35  1  0  0  0  0
  7 36  1  0  0  0  0
  8 37  1  0  0  0  0
  8 38  1  0  0  0  0
  9 39  1  0  0  0  0
  9 40  1  0  0  0  0
 10 41  1  0  0  0  0
 11 42  1  0  0  0  0
 13 43  1  0  0  0  0
 19 44  1  0  0  0  0
 24 45  1  0  0  0  0
 24 46  1  0  0  0  0
 26 47  1  0  0  0  0
 26 48  1  0  0  0  0
 26 49  1  0  0  0  0
M  END
> <r_user_dG.exp>
-7.862

$$$$
22
  -OEChem-05192314073D
 Structure written by MMmdl.
 49 52  0     0  0  0  0  0  0999 V2000
    1.3901   29.1077    6.7935 C   0  0  0  0  0  0  0  0  0  0  0  0
   -1.6911   31.9130    8.0794 C   0  0  0  0  0  0  0  0  0  0  0  0
   -0.7437   26.3748    8.8319 C   0  0  0  0  0  0  0  0  0  0  0  0
   -1.3142   25.5567    9.9914 C   0  0  0  0  0  0  0  0  0  0  0  0
   -1.1214   24.0589    9.6854 C   0  0  0  0  0  0  0  0  0  0  0  0
   -1.5824   23.1795   10.8502 C   0  0  0  0  0  0  0  0  0  0  0  0
   -0.8551   23.5463   12.1491 C   0  0  0  0  0  0  0  0  0  0  0  0
   -1.0780   25.0277   12.4857 C   0  0  0  0  0  0  0  0  0  0  0  0
   -0.6321   25.9351   11.3273 C   0  0  0  0  0  0  0  0  0  0  0  0
    4.6903   25.7129    5.8380 C   0  0  0  0  0  0  0  0  0  0  0  0
    4.6667   25.1395    7.1233 C   0  0  0  0  0  0  0  0  0  0  0  0
    3.9496   25.7658    8.1576 C   0  0  0  0  0  0  0  0  0  0  0  0
    3.2460   26.9556    7.8985 C   0  0  0  0  0  0  0  0  0  0  0  0
    0.6302   28.2313    7.4508 N   0  0  0  0  0  0  0  0  0  0  0  0
   -0.4898   28.6252    8.0923 C   0  0  0  0  0  0  0  0  0  0  0  0
   -1.1796   27.7315    8.8832 O   0  0  0  0  0  0  0  0  0  0  0  0
   -0.8660   29.9818    8.0000 C   0  0  0  0  0  0  0  0  0  0  0  0
   -1.9251   30.7129    8.5212 N   0  0  0  0  0  0  0  0  0  0  0  0
   -0.5542   32.0464    7.3306 N   0  0  0  0  0  0  0  0  0  0  0  0
   -0.0249   30.7863    7.2610 C   0  0  0  0  0  0  0  0  0  0  0  0
    1.1172   30.4049    6.6113 N   0  0  0  0  0  0  0  0  0  0  0  0
    2.5827   28.6807    6.3360 N   0  0  0  0  0  0  0  0  0  0  0  0
    3.2365   27.5251    6.6032 C   0  0  0  0  0  0  0  0  0  0  0  0
    3.9871   26.9068    5.5819 C   0  0  0  0  0  0  0  0  0  0  0  0
    3.9347   25.0874    9.7381 S   0  0  0  0  0  0  0  0  0  0  0  0
    2.9329   26.1133   10.8427 C   0  0  0  0  0  0  0  0  0  0  0  0
   -2.3473   32.7449    8.2886 H   0  0  0  0  0  0  0  0  0  0  0  0
    0.3548   26.3504    8.8841 H   0  0  0  0  0  0  0  0  0  0  0  0
   -1.0756   25.9287    7.8828 H   0  0  0  0  0  0  0  0  0  0  0  0
   -2.3913   25.7635   10.0760 H   0  0  0  0  0  0  0  0  0  0  0  0
   -1.7056   23.7998    8.7901 H   0  0  0  0  0  0  0  0  0  0  0  0
   -0.0549   23.8683    9.4951 H   0  0  0  0  0  0  0  0  0  0  0  0
   -2.6643   23.3154   10.9950 H   0  0  0  0  0  0  0  0  0  0  0  0
   -1.3742   22.1268   10.6083 H   0  0  0  0  0  0  0  0  0  0  0  0
   -1.2434   22.9254   12.9699 H   0  0  0  0  0  0  0  0  0  0  0  0
    0.2221   23.3603   12.0266 H   0  0  0  0  0  0  0  0  0  0  0  0
   -2.1477   25.1942   12.6804 H   0  0  0  0  0  0  0  0  0  0  0  0
   -0.4976   25.2825   13.3847 H   0  0  0  0  0  0  0  0  0  0  0  0
    0.4575   25.8452   11.2064 H   0  0  0  0  0  0  0  0  0  0  0  0
   -0.8891   26.9759   11.5737 H   0  0  0  0  0  0  0  0  0  0  0  0
    5.2489   25.2365    5.0459 H   0  0  0  0  0  0  0  0  0  0  0  0
    5.1989   24.2194    7.3147 H   0  0  0  0  0  0  0  0  0  0  0  0
    2.1960   26.7631    8.1641 H   0  0  0  0  0  0  0  0  0  0  0  0
    3.6610   27.7186    8.5734 H   0  0  0  0  0  0  0  0  0  0  0  0
   -2.6805   30.3952    9.0943 H   0  0  0  0  0  0  0  0  0  0  0  0
    4.0232   27.3508    4.5981 H   0  0  0  0  0  0  0  0  0  0  0  0
    2.9290   25.6723   11.8504 H   0  0  0  0  0  0  0  0  0  0  0  0
    3.3582   27.1268   10.8878 H   0  0  0  0  0  0  0  0  0  0  0  0
    1.9025   26.1647   10.4611 H   0  0  0  0  0  0  0  0  0  0  0  0
  1 14  2  0  0  0  0
  1 21  1  0  0  0  0
  1 22  1  0  0  0  0
  2 18  1  0  0  0  0
  2 19  2  0  0  0  0
  3  4  1  0  0  0  0
  3 16  1  0  0  0  0
  4  5  1  0  0  0  0
  4  9  1  0  0  0  0
  5  6  1  0  0  0  0
  6  7  1  0  0  0  0
  7  8  1  0  0  0  0
  8  9  1  0  0  0  0
 10 11  1  0  0  0  0
 10 24  2  0  0  0  0
 11 12  2  0  0  0  0
 12 13  1  0  0  0  0
 12 25  1  0  0  0  0
 13 23  1  0  0  0  0
 14 15  1  0  0  0  0
 15 16  1  0  0  0  0
 15 17  2  0  0  0  0
 17 18  1  0  0  0  0
 17 20  1  0  0  0  0
 19 20  1  0  0  0  0
 20 21  2  0  0  0  0
 22 23  2  3  0  0  0
 23 24  1  0  0  0  0
 25 26  1  0  0  0  0
  2 27  1  0  0  0  0
  3 28  1  0  0  0  0
  3 29  1  0  0  0  0
  4 30  1  0  0  0  0
  5 31  1  0  0  0  0
  5 32  1  0  0  0  0
  6 33  1  0  0  0  0
  6 34  1  0  0  0  0
  7 35  1  0  0  0  0
  7 36  1  0  0  0  0
  8 37  1  0  0  0  0
  8 38  1  0  0  0  0
  9 39  1  0  0  0  0
  9 40  1  0  0  0  0
 10 41  1  0  0  0  0
 11 42  1  0  0  0  0
 13 43  1  0  0  0  0
 13 44  1  0  0  0  0
 18 45  1  0  0  0  0
 24 46  1  0  0  0  0
 26 47  1  0  0  0  0
 26 48  1  0  0  0  0
 26 49  1  0  0  0  0
M  END
> <r_user_dG.exp>
-7.862

$$$$
22
  -OEChem-05192314073D
 Structure written by MMmdl.
 49 52  0     0  0  0  0  0  0999 V2000
    1.3901   29.1077    6.7935 C   0  0  0  0  0  0  0  0  0  0  0  0
   -1.6911   31.9130    8.0794 C   0  0  0  0  0  0  0  0  0  0  0  0
   -0.7437   26.3748    8.8319 C   0  0  0  0  0  0  0  0  0  0  0  0
   -1.3142   25.5567    9.9914 C   0  0  0  0  0  0  0  0  0  0  0  0
   -1.1214   24.0589    9.6854 C   0  0  0  0  0  0  0  0  0  0  0  0
   -1.5824   23.1795   10.8502 C   0  0  0  0  0  0  0  0  0  0  0  0
   -0.8551   23.5463   12.1491 C   0  0  0  0  0  0  0  0  0  0  0  0
   -1.0780   25.0277   12.4857 C   0  0  0  0  0  0  0  0  0  0  0  0
   -0.6321   25.9351   11.3273 C   0  0  0  0  0  0  0  0  0  0  0  0
    4.6903   25.7129    5.8380 C   0  0  0  0  0  0  0  0  0  0  0  0
    4.6667   25.1395    7.1233 C   0  0  0  0  0  0  0  0  0  0  0  0
    3.9496   25.7658    8.1576 C   0  0  0  0  0  0  0  0  0  0  0  0
    3.2460   26.9556    7.8985 C   0  0  0  0  0  0  0  0  0  0  0  0
    0.6302   28.2313    7.4508 N   0  0  0  0  0  0  0  0  0  0  0  0
   -0.4898   28.6252    8.0923 C   0  0  0  0  0  0  0  0  0  0  0  0
   -1.1796   27.7315    8.8832 O   0  0  0  0  0  0  0  0  0  0  0  0
   -0.8660   29.9818    8.0000 C   0  0  0  0  0  0  0  0  0  0  0  0
   -1.9251   30.7129    8.5212 N   0  0  0  0  0  0  0  0  0  0  0  0
   -0.5542   32.0464    7.3306 N   0  0  0  0  0  0  0  0  0  0  0  0
   -0.0249   30.7863    7.2610 C   0  0  0  0  0  0  0  0  0  0  0  0
    1.1172   30.4049    6.6113 N   0  0  0  0  0  0  0  0  0  0  0  0
    2.5827   28.6807    6.3360 N   0  0  0  0  0  0  0  0  0  0  0  0
    3.2365   27.5251    6.6032 C   0  0  0  0  0  0  0  0  0  0  0  0
    3.9871   26.9068    5.5819 C   0  0  0  0  0  0  0  0  0  0  0  0
    3.9347   25.0874    9.7381 S   0  0  0  0  0  0  0  0  0  0  0  0
    2.9329   26.1133   10.8427 C   0  0  0  0  0  0  0  0  0  0  0  0
   -2.3473   32.7449    8.2886 H   0  0  0  0  0  0  0  0  0  0  0  0
    0.3548   26.3504    8.8841 H   0  0  0  0  0  0  0  0  0  0  0  0
   -1.0756   25.9287    7.8828 H   0  0  0  0  0  0  0  0  0  0  0  0
   -2.3913   25.7635   10.0760 H   0  0  0  0  0  0  0  0  0  0  0  0
   -1.7056   23.7998    8.7901 H   0  0  0  0  0  0  0  0  0  0  0  0
   -0.0549   23.8683    9.4951 H   0  0  0  0  0  0  0  0  0  0  0  0
   -2.6643   23.3154   10.9950 H   0  0  0  0  0  0  0  0  0  0  0  0
   -1.3742   22.1268   10.6083 H   0  0  0  0  0  0  0  0  0  0  0  0
   -1.2434   22.9254   12.9699 H   0  0  0  0  0  0  0  0  0  0  0  0
    0.2221   23.3603   12.0266 H   0  0  0  0  0  0  0  0  0  0  0  0
   -2.1477   25.1942   12.6804 H   0  0  0  0  0  0  0  0  0  0  0  0
   -0.4976   25.2825   13.3847 H   0  0  0  0  0  0  0  0  0  0  0  0
    0.4575   25.8452   11.2064 H   0  0  0  0  0  0  0  0  0  0  0  0
   -0.8891   26.9759   11.5737 H   0  0  0  0  0  0  0  0  0  0  0  0
    5.2489   25.2365    5.0459 H   0  0  0  0  0  0  0  0  0  0  0  0
    5.1989   24.2194    7.3147 H   0  0  0  0  0  0  0  0  0  0  0  0
    2.1960   26.7631    8.1641 H   0  0  0  0  0  0  0  0  0  0  0  0
    3.6610   27.7186    8.5734 H   0  0  0  0  0  0  0  0  0  0  0  0
   -0.1890   32.8832    6.9226 H   0  0  0  0  0  0  0  0  0  0  0  0
    4.0232   27.3508    4.5981 H   0  0  0  0  0  0  0  0  0  0  0  0
    2.9290   25.6723   11.8504 H   0  0  0  0  0  0  0  0  0  0  0  0
    3.3582   27.1268   10.8878 H   0  0  0  0  0  0  0  0  0  0  0  0
    1.9025   26.1647   10.4611 H   0  0  0  0  0  0  0  0  0  0  0  0
  1 14  2  0  0  0  0
  1 21  1  0  0  0  0
  1 22  1  0  0  0  0
  2 18  2  0  0  0  0
  2 19  1  0  0  0  0
  3  4  1  0  0  0  0
  3 16  1  0  0  0  0
  4  5  1  0  0  0  0
  4  9  1  0  0  0  0
  5  6  1  0  0  0  0
  6  7  1  0  0  0  0
  7  8  1  0  0  0  0
  8  9  1  0  0  0  0
 10 11  1  0  0  0  0
 10 24  2  0  0  0  0
 11 12  2  0  0  0  0
 12 13  1  0  0  0  0
 12 25  1  0  0  0  0
 13 23  1  0  0  0  0
 14 15  1  0  0  0  0
 15 16  1  0  0  0  0
 15 17  2  0  0  0  0
 17 18  1  0  0  0  0
 17 20  1  0  0  0  0
 19 20  1  0  0  0  0
 20 21  2  0  0  0  0
 22 23  2  3  0  0  0
 23 24  1  0  0  0  0
 25 26  1  0  0  0  0
  2 27  1  0  0  0  0
  3 28  1  0  0  0  0
  3 29  1  0  0  0  0
  4 30  1  0  0  0  0
  5 31  1  0  0  0  0
  5 32  1  0  0  0  0
  6 33  1  0  0  0  0
  6 34  1  0  0  0  0
  7 35  1  0  0  0  0
  7 36  1  0  0  0  0
  8 37  1  0  0  0  0
  8 38  1  0  0  0  0
  9 39  1  0  0  0  0
  9 40  1  0  0  0  0
 10 41  1  0  0  0  0
 11 42  1  0  0  0  0
 13 43  1  0  0  0  0
 13 44  1  0  0  0  0
 19 45  1  0  0  0  0
 24 46  1  0  0  0  0
 26 47  1  0  0  0  0
 26 48  1  0  0  0  0
 26 49  1  0  0  0  0
M  END
> <r_user_dG.exp>
-7.862

$$$$
22
  -OEChem-05192314073D
 Structure written by MMmdl.
 49 52  0     0  0  0  0  0  0999 V2000
    1.3901   29.1077    6.7935 C   0  0  0  0  0  0  0  0  0  0  0  0
   -1.6911   31.9130    8.0794 C   0  0  0  0  0  0  0  0  0  0  0  0
   -0.7437   26.3748    8.8319 C   0  0  0  0  0  0  0  0  0  0  0  0
   -1.3142   25.5567    9.9914 C   0  0  0  0  0  0  0  0  0  0  0  0
   -1.1214   24.0589    9.6854 C   0  0  0  0  0  0  0  0  0  0  0  0
   -1.5824   23.1795   10.8502 C   0  0  0  0  0  0  0  0  0  0  0  0
   -0.8551   23.5463   12.1491 C   0  0  0  0  0  0  0  0  0  0  0  0
   -1.0780   25.0277   12.4857 C   0  0  0  0  0  0  0  0  0  0  0  0
   -0.6321   25.9351   11.3273 C   0  0  0  0  0  0  0  0  0  0  0  0
    4.6903   25.7129    5.8380 C   0  0  0  0  0  0  0  0  0  0  0  0
    4.6667   25.1395    7.1233 C   0  0  0  0  0  0  0  0  0  0  0  0
    3.9496   25.7658    8.1576 C   0  0  0  0  0  0  0  0  0  0  0  0
    3.2460   26.9556    7.8985 C   0  0  0  0  0  0  0  0  0  0  0  0
    0.6302   28.2313    7.4508 N   0  0  0  0  0  0  0  0  0  0  0  0
   -0.4898   28.6252    8.0923 C   0  0  0  0  0  0  0  0  0  0  0  0
   -1.1796   27.7315    8.8832 O   0  0  0  0  0  0  0  0  0  0  0  0
   -0.8660   29.9818    8.0000 C   0  0  0  0  0  0  0  0  0  0  0  0
   -1.9251   30.7129    8.5212 N   0  0  0  0  0  0  0  0  0  0  0  0
   -0.5542   32.0464    7.3306 N   0  0  0  0  0  0  0  0  0  0  0  0
   -0.0249   30.7863    7.2610 C   0  0  0  0  0  0  0  0  0  0  0  0
    1.1172   30.4049    6.6113 N   0  0  0  0  0  0  0  0  0  0  0  0
    2.5827   28.6807    6.3360 N   0  0  0  0  0  0  0  0  0  0  0  0
    3.2365   27.5251    6.6032 C   0  0  0  0  0  0  0  0  0  0  0  0
    3.9871   26.9068    5.5819 C   0  0  0  0  0  0  0  0  0  0  0  0
    3.9347   25.0874    9.7381 S   0  0  0  0  0  0  0  0  0  0  0  0
    2.9329   26.1133   10.8427 C   0  0  0  0  0  0  0  0  0  0  0  0
   -2.3473   32.7449    8.2886 H   0  0  0  0  0  0  0  0  0  0  0  0
    0.3548   26.3504    8.8841 H   0  0  0  0  0  0  0  0  0  0  0  0
   -1.0756   25.9287    7.8828 H   0  0  0  0  0  0  0  0  0  0  0  0
   -2.3913   25.7635   10.0760 H   0  0  0  0  0  0  0  0  0  0  0  0
   -1.7056   23.7998    8.7901 H   0  0  0  0  0  0  0  0  0  0  0  0
   -0.0549   23.8683    9.4951 H   0  0  0  0  0  0  0  0  0  0  0  0
   -2.6643   23.3154   10.9950 H   0  0  0  0  0  0  0  0  0  0  0  0
   -1.3742   22.1268   10.6083 H   0  0  0  0  0  0  0  0  0  0  0  0
   -1.2434   22.9254   12.9699 H   0  0  0  0  0  0  0  0  0  0  0  0
    0.2221   23.3603   12.0266 H   0  0  0  0  0  0  0  0  0  0  0  0
   -2.1477   25.1942   12.6804 H   0  0  0  0  0  0  0  0  0  0  0  0
   -0.4976   25.2825   13.3847 H   0  0  0  0  0  0  0  0  0  0  0  0
    0.4575   25.8452   11.2064 H   0  0  0  0  0  0  0  0  0  0  0  0
   -0.8891   26.9759   11.5737 H   0  0  0  0  0  0  0  0  0  0  0  0
    5.2489   25.2365    5.0459 H   0  0  0  0  0  0  0  0  0  0  0  0
    4.2475   24.1285    7.0127 H   0  0  0  0  0  0  0  0  0  0  0  0
    5.7118   25.0684    7.4589 H   0  0  0  0  0  0  0  0  0  0  0  0
    2.7061   27.4407    8.6982 H   0  0  0  0  0  0  0  0  0  0  0  0
    1.6818   31.0231    6.0644 H   0  0  0  0  0  0  0  0  0  0  0  0
    4.0232   27.3508    4.5981 H   0  0  0  0  0  0  0  0  0  0  0  0
    2.9290   25.6723   11.8504 H   0  0  0  0  0  0  0  0  0  0  0  0
    3.3582   27.1268   10.8878 H   0  0  0  0  0  0  0  0  0  0  0  0
    1.9025   26.1647   10.4611 H   0  0  0  0  0  0  0  0  0  0  0  0
  1 14  2  0  0  0  0
  1 21  1  0  0  0  0
  1 22  1  0  0  0  0
  2 18  2  0  0  0  0
  2 19  1  0  0  0  0
  3  4  1  0  0  0  0
  3 16  1  0  0  0  0
  4  5  1  0  0  0  0
  4  9  1  0  0  0  0
  5  6  1  0  0  0  0
  6  7  1  0  0  0  0
  7  8  1  0  0  0  0
  8  9  1  0  0  0  0
 10 11  1  0  0  0  0
 10 24  2  0  0  0  0
 11 12  1  0  0  0  0
 12 13  2  0  0  0  0
 12 25  1  0  0  0  0
 13 23  1  0  0  0  0
 14 15  1  0  0  0  0
 15 16  1  0  0  0  0
 15 17  2  0  0  0  0
 17 18  1  0  0  0  0
 17 20  1  0  0  0  0
 19 20  2  0  0  0  0
 20 21  1  0  0  0  0
 22 23  2  3  0  0  0
 23 24  1  0  0  0  0
 25 26  1  0  0  0  0
  2 27  1  0  0  0  0
  3 28  1  0  0  0  0
  3 29  1  0  0  0  0
  4 30  1  0  0  0  0
  5 31  1  0  0  0  0
  5 32  1  0  0  0  0
  6 33  1  0  0  0  0
  6 34  1  0  0  0  0
  7 35  1  0  0  0  0
  7 36  1  0  0  0  0
  8 37  1  0  0  0  0
  8 38  1  0  0  0  0
  9 39  1  0  0  0  0
  9 40  1  0  0  0  0
 10 41  1  0  0  0  0
 11 42  1  0  0  0  0
 11 43  1  0  0  0  0
 13 44  1  0  0  0  0
 21 45  1  0  0  0  0
 24 46  1  0  0  0  0
 26 47  1  0  0  0  0
 26 48  1  0  0  0  0
 26 49  1  0  0  0  0
M  END
> <r_user_dG.exp>
-7.862

$$$$
22
  -OEChem-05192314073D
 Structure written by MMmdl.
 49 52  0     0  0  0  0  0  0999 V2000
    1.3901   29.1077    6.7935 C   0  0  0  0  0  0  0  0  0  0  0  0
   -1.6911   31.9130    8.0794 C   0  0  0  0  0  0  0  0  0  0  0  0
   -0.7437   26.3748    8.8319 C   0  0  0  0  0  0  0  0  0  0  0  0
   -1.3142   25.5567    9.9914 C   0  0  0  0  0  0  0  0  0  0  0  0
   -1.1214   24.0589    9.6854 C   0  0  0  0  0  0  0  0  0  0  0  0
   -1.5824   23.1795   10.8502 C   0  0  0  0  0  0  0  0  0  0  0  0
   -0.8551   23.5463   12.1491 C   0  0  0  0  0  0  0  0  0  0  0  0
   -1.0780   25.0277   12.4857 C   0  0  0  0  0  0  0  0  0  0  0  0
   -0.6321   25.9351   11.3273 C   0  0  0  0  0  0  0  0  0  0  0  0
    4.6903   25.7129    5.8380 C   0  0  0  0  0  0  0  0  0  0  0  0
    4.6667   25.1395    7.1233 C   0  0  0  0  0  0  0  0  0  0  0  0
    3.9496   25.7658    8.1576 C   0  0  0  0  0  0  0  0  0  0  0  0
    3.2460   26.9556    7.8985 C   0  0  0  0  0  0  0  0  0  0  0  0
    0.6302   28.2313    7.4508 N   0  0  0  0  0  0  0  0  0  0  0  0
   -0.4898   28.6252    8.0923 C   0  0  0  0  0  0  0  0  0  0  0  0
   -1.1796   27.7315    8.8832 O   0  0  0  0  0  0  0  0  0  0  0  0
   -0.8660   29.9818    8.0000 C   0  0  0  0  0  0  0  0  0  0  0  0
   -1.9251   30.7129    8.5212 N   0  0  0  0  0  0  0  0  0  0  0  0
   -0.5542   32.0464    7.3306 N   0  0  0  0  0  0  0  0  0  0  0  0
   -0.0249   30.7863    7.2610 C   0  0  0  0  0  0  0  0  0  0  0  0
    1.1172   30.4049    6.6113 N   0  0  0  0  0  0  0  0  0  0  0  0
    2.5827   28.6807    6.3360 N   0  0  0  0  0  0  0  0  0  0  0  0
    3.2365   27.5251    6.6032 C   0  0  0  0  0  0  0  0  0  0  0  0
    3.9871   26.9068    5.5819 C   0  0  0  0  0  0  0  0  0  0  0  0
    3.9347   25.0874    9.7381 S   0  0  0  0  0  0  0  0  0  0  0  0
    2.9329   26.1133   10.8427 C   0  0  0  0  0  0  0  0  0  0  0  0
   -2.3473   32.7449    8.2886 H   0  0  0  0  0  0  0  0  0  0  0  0
    0.3548   26.3504    8.8841 H   0  0  0  0  0  0  0  0  0  0  0  0
   -1.0756   25.9287    7.8828 H   0  0  0  0  0  0  0  0  0  0  0  0
   -2.3913   25.7635   10.0760 H   0  0  0  0  0  0  0  0  0  0  0  0
   -1.7056   23.7998    8.7901 H   0  0  0  0  0  0  0  0  0  0  0  0
   -0.0549   23.8683    9.4951 H   0  0  0  0  0  0  0  0  0  0  0  0
   -2.6643   23.3154   10.9950 H   0  0  0  0  0  0  0  0  0  0  0  0
   -1.3742   22.1268   10.6083 H   0  0  0  0  0  0  0  0  0  0  0  0
   -1.2434   22.9254   12.9699 H   0  0  0  0  0  0  0  0  0  0  0  0
    0.2221   23.3603   12.0266 H   0  0  0  0  0  0  0  0  0  0  0  0
   -2.1477   25.1942   12.6804 H   0  0  0  0  0  0  0  0  0  0  0  0
   -0.4976   25.2825   13.3847 H   0  0  0  0  0  0  0  0  0  0  0  0
    0.4575   25.8452   11.2064 H   0  0  0  0  0  0  0  0  0  0  0  0
   -0.8891   26.9759   11.5737 H   0  0  0  0  0  0  0  0  0  0  0  0
    5.2489   25.2365    5.0459 H   0  0  0  0  0  0  0  0  0  0  0  0
    4.2475   24.1285    7.0127 H   0  0  0  0  0  0  0  0  0  0  0  0
    5.7118   25.0684    7.4589 H   0  0  0  0  0  0  0  0  0  0  0  0
    2.7061   27.4407    8.6982 H   0  0  0  0  0  0  0  0  0  0  0  0
    0.8943   27.2670    7.4687 H   0  0  0  0  0  0  0  0  0  0  0  0
    4.0232   27.3508    4.5981 H   0  0  0  0  0  0  0  0  0  0  0  0
    2.9290   25.6723   11.8504 H   0  0  0  0  0  0  0  0  0  0  0  0
    3.3582   27.1268   10.8878 H   0  0  0  0  0  0  0  0  0  0  0  0
    1.9025   26.1647   10.4611 H   0  0  0  0  0  0  0  0  0  0  0  0
  1 14  1  0  0  0  0
  1 21  2  0  0  0  0
  1 22  1  0  0  0  0
  2 18  2  0  0  0  0
  2 19  1  0  0  0  0
  3  4  1  0  0  0  0
  3 16  1  0  0  0  0
  4  5  1  0  0  0  0
  4  9  1  0  0  0  0
  5  6  1  0  0  0  0
  6  7  1  0  0  0  0
  7  8  1  0  0  0  0
  8  9  1  0  0  0  0
 10 11  1  0  0  0  0
 10 24  2  0  0  0  0
 11 12  1  0  0  0  0
 12 13  2  0  0  0  0
 12 25  1  0  0  0  0
 13 23  1  0  0  0  0
 14 15  1  0  0  0  0
 15 16  1  0  0  0  0
 15 17  2  0  0  0  0
 17 18  1  0  0  0  0
 17 20  1  0  0  0  0
 19 20  2  0  0  0  0
 20 21  1  0  0  0  0
 22 23  2  3  0  0  0
 23 24  1  0  0  0  0
 25 26  1  0  0  0  0
  2 27  1  0  0  0  0
  3 28  1  0  0  0  0
  3 29  1  0  0  0  0
  4 30  1  0  0  0  0
  5 31  1  0  0  0  0
  5 32  1  0  0  0  0
  6 33  1  0  0  0  0
  6 34  1  0  0  0  0
  7 35  1  0  0  0  0
  7 36  1  0  0  0  0
  8 37  1  0  0  0  0
  8 38  1  0  0  0  0
  9 39  1  0  0  0  0
  9 40  1  0  0  0  0
 10 41  1  0  0  0  0
 11 42  1  0  0  0  0
 11 43  1  0  0  0  0
 13 44  1  0  0  0  0
 14 45  1  0  0  0  0
 24 46  1  0  0  0  0
 26 47  1  0  0  0  0
 26 48  1  0  0  0  0
 26 49  1  0  0  0  0
M  END
> <r_user_dG.exp>
-7.862

$$$$
22
  -OEChem-05192314073D
 Structure written by MMmdl.
 49 52  0     0  0  0  0  0  0999 V2000
    1.3901   29.1077    6.7935 C   0  0  0  0  0  0  0  0  0  0  0  0
   -1.6911   31.9130    8.0794 C   0  0  0  0  0  0  0  0  0  0  0  0
   -0.7437   26.3748    8.8319 C   0  0  0  0  0  0  0  0  0  0  0  0
   -1.3142   25.5567    9.9914 C   0  0  0  0  0  0  0  0  0  0  0  0
   -1.1214   24.0589    9.6854 C   0  0  0  0  0  0  0  0  0  0  0  0
   -1.5824   23.1795   10.8502 C   0  0  0  0  0  0  0  0  0  0  0  0
   -0.8551   23.5463   12.1491 C   0  0  0  0  0  0  0  0  0  0  0  0
   -1.0780   25.0277   12.4857 C   0  0  0  0  0  0  0  0  0  0  0  0
   -0.6321   25.9351   11.3273 C   0  0  0  0  0  0  0  0  0  0  0  0
    4.6903   25.7129    5.8380 C   0  0  0  0  0  0  0  0  0  0  0  0
    4.6667   25.1395    7.1233 C   0  0  0  0  0  0  0  0  0  0  0  0
    3.9496   25.7658    8.1576 C   0  0  0  0  0  0  0  0  0  0  0  0
    3.2460   26.9556    7.8985 C   0  0  0  0  0  0  0  0  0  0  0  0
    0.6302   28.2313    7.4508 N   0  0  0  0  0  0  0  0  0  0  0  0
   -0.4898   28.6252    8.0923 C   0  0  0  0  0  0  0  0  0  0  0  0
   -1.1796   27.7315    8.8832 O   0  0  0  0  0  0  0  0  0  0  0  0
   -0.8660   29.9818    8.0000 C   0  0  0  0  0  0  0  0  0  0  0  0
   -1.9251   30.7129    8.5212 N   0  0  0  0  0  0  0  0  0  0  0  0
   -0.5542   32.0464    7.3306 N   0  0  0  0  0  0  0  0  0  0  0  0
   -0.0249   30.7863    7.2610 C   0  0  0  0  0  0  0  0  0  0  0  0
    1.1172   30.4049    6.6113 N   0  0  0  0  0  0  0  0  0  0  0  0
    2.5827   28.6807    6.3360 N   0  0  0  0  0  0  0  0  0  0  0  0
    3.2365   27.5251    6.6032 C   0  0  0  0  0  0  0  0  0  0  0  0
    3.9871   26.9068    5.5819 C   0  0  0  0  0  0  0  0  0  0  0  0
    3.9347   25.0874    9.7381 S   0  0  0  0  0  0  0  0  0  0  0  0
    2.9329   26.1133   10.8427 C   0  0  0  0  0  0  0  0  0  0  0  0
   -2.3473   32.7449    8.2886 H   0  0  0  0  0  0  0  0  0  0  0  0
    0.3548   26.3504    8.8841 H   0  0  0  0  0  0  0  0  0  0  0  0
   -1.0756   25.9287    7.8828 H   0  0  0  0  0  0  0  0  0  0  0  0
   -2.3913   25.7635   10.0760 H   0  0  0  0  0  0  0  0  0  0  0  0
   -1.7056   23.7998    8.7901 H   0  0  0  0  0  0  0  0  0  0  0  0
   -0.0549   23.8683    9.4951 H   0  0  0  0  0  0  0  0  0  0  0  0
   -2.6643   23.3154   10.9950 H   0  0  0  0  0  0  0  0  0  0  0  0
   -1.3742   22.1268   10.6083 H   0  0  0  0  0  0  0  0  0  0  0  0
   -1.2434   22.9254   12.9699 H   0  0  0  0  0  0  0  0  0  0  0  0
    0.2221   23.3603   12.0266 H   0  0  0  0  0  0  0  0  0  0  0  0
   -2.1477   25.1942   12.6804 H   0  0  0  0  0  0  0  0  0  0  0  0
   -0.4976   25.2825   13.3847 H   0  0  0  0  0  0  0  0  0  0  0  0
    0.4575   25.8452   11.2064 H   0  0  0  0  0  0  0  0  0  0  0  0
   -0.8891   26.9759   11.5737 H   0  0  0  0  0  0  0  0  0  0  0  0
    5.2489   25.2365    5.0459 H   0  0  0  0  0  0  0  0  0  0  0  0
    5.1989   24.2194    7.3147 H   0  0  0  0  0  0  0  0  0  0  0  0
    2.7061   27.4407    8.6982 H   0  0  0  0  0  0  0  0  0  0  0  0
    1.6818   31.0231    6.0644 H   0  0  0  0  0  0  0  0  0  0  0  0
    4.7300   27.6448    5.2450 H   0  0  0  0  0  0  0  0  0  0  0  0
    3.2866   26.6910    4.7617 H   0  0  0  0  0  0  0  0  0  0  0  0
    2.9290   25.6723   11.8504 H   0  0  0  0  0  0  0  0  0  0  0  0
    3.3582   27.1268   10.8878 H   0  0  0  0  0  0  0  0  0  0  0  0
    1.9025   26.1647   10.4611 H   0  0  0  0  0  0  0  0  0  0  0  0
  1 14  2  0  0  0  0
  1 21  1  0  0  0  0
  1 22  1  0  0  0  0
  2 18  2  0  0  0  0
  2 19  1  0  0  0  0
  3  4  1  0  0  0  0
  3 16  1  0  0  0  0
  4  5  1  0  0  0  0
  4  9  1  0  0  0  0
  5  6  1  0  0  0  0
  6  7  1  0  0  0  0
  7  8  1  0  0  0  0
  8  9  1  0  0  0  0
 10 11  2  0  0  0  0
 10 24  1  0  0  0  0
 11 12  1  0  0  0  0
 12 13  2  0  0  0  0
 12 25  1  0  0  0  0
 13 23  1  0  0  0  0
 14 15  1  0  0  0  0
 15 16  1  0  0  0  0
 15 17  2  0  0  0  0
 17 18  1  0  0  0  0
 17 20  1  0  0  0  0
 19 20  2  0  0  0  0
 20 21  1  0  0  0  0
 22 23  2  3  0  0  0
 23 24  1  0  0  0  0
 25 26  1  0  0  0  0
  2 27  1  0  0  0  0
  3 28  1  0  0  0  0
  3 29  1  0  0  0  0
  4 30  1  0  0  0  0
  5 31  1  0  0  0  0
  5 32  1  0  0  0  0
  6 33  1  0  0  0  0
  6 34  1  0  0  0  0
  7 35  1  0  0  0  0
  7 36  1  0  0  0  0
  8 37  1  0  0  0  0
  8 38  1  0  0  0  0
  9 39  1  0  0  0  0
  9 40  1  0  0  0  0
 10 41  1  0  0  0  0
 11 42  1  0  0  0  0
 13 43  1  0  0  0  0
 21 44  1  0  0  0  0
 24 45  1  0  0  0  0
 24 46  1  0  0  0  0
 26 47  1  0  0  0  0
 26 48  1  0  0  0  0
 26 49  1  0  0  0  0
M  END
> <r_user_dG.exp>
-7.862

$$$$
22
  -OEChem-05192314073D
 Structure written by MMmdl.
 49 52  0     0  0  0  0  0  0999 V2000
    1.3901   29.1077    6.7935 C   0  0  0  0  0  0  0  0  0  0  0  0
   -1.6911   31.9130    8.0794 C   0  0  0  0  0  0  0  0  0  0  0  0
   -0.7437   26.3748    8.8319 C   0  0  0  0  0  0  0  0  0  0  0  0
   -1.3142   25.5567    9.9914 C   0  0  0  0  0  0  0  0  0  0  0  0
   -1.1214   24.0589    9.6854 C   0  0  0  0  0  0  0  0  0  0  0  0
   -1.5824   23.1795   10.8502 C   0  0  0  0  0  0  0  0  0  0  0  0
   -0.8551   23.5463   12.1491 C   0  0  0  0  0  0  0  0  0  0  0  0
   -1.0780   25.0277   12.4857 C   0  0  0  0  0  0  0  0  0  0  0  0
   -0.6321   25.9351   11.3273 C   0  0  0  0  0  0  0  0  0  0  0  0
    4.6903   25.7129    5.8380 C   0  0  0  0  0  0  0  0  0  0  0  0
    4.6667   25.1395    7.1233 C   0  0  0  0  0  0  0  0  0  0  0  0
    3.9496   25.7658    8.1576 C   0  0  0  0  0  0  0  0  0  0  0  0
    3.2460   26.9556    7.8985 C   0  0  0  0  0  0  0  0  0  0  0  0
    0.6302   28.2313    7.4508 N   0  0  0  0  0  0  0  0  0  0  0  0
   -0.4898   28.6252    8.0923 C   0  0  0  0  0  0  0  0  0  0  0  0
   -1.1796   27.7315    8.8832 O   0  0  0  0  0  0  0  0  0  0  0  0
   -0.8660   29.9818    8.0000 C   0  0  0  0  0  0  0  0  0  0  0  0
   -1.9251   30.7129    8.5212 N   0  0  0  0  0  0  0  0  0  0  0  0
   -0.5542   32.0464    7.3306 N   0  0  0  0  0  0  0  0  0  0  0  0
   -0.0249   30.7863    7.2610 C   0  0  0  0  0  0  0  0  0  0  0  0
    1.1172   30.4049    6.6113 N   0  0  0  0  0  0  0  0  0  0  0  0
    2.5827   28.6807    6.3360 N   0  0  0  0  0  0  0  0  0  0  0  0
    3.2365   27.5251    6.6032 C   0  0  0  0  0  0  0  0  0  0  0  0
    3.9871   26.9068    5.5819 C   0  0  0  0  0  0  0  0  0  0  0  0
    3.9347   25.0874    9.7381 S   0  0  0  0  0  0  0  0  0  0  0  0
    2.9329   26.1133   10.8427 C   0  0  0  0  0  0  0  0  0  0  0  0
   -2.3473   32.7449    8.2886 H   0  0  0  0  0  0  0  0  0  0  0  0
    0.3548   26.3504    8.8841 H   0  0  0  0  0  0  0  0  0  0  0  0
   -1.0756   25.9287    7.8828 H   0  0  0  0  0  0  0  0  0  0  0  0
   -2.3913   25.7635   10.0760 H   0  0  0  0  0  0  0  0  0  0  0  0
   -1.7056   23.7998    8.7901 H   0  0  0  0  0  0  0  0  0  0  0  0
   -0.0549   23.8683    9.4951 H   0  0  0  0  0  0  0  0  0  0  0  0
   -2.6643   23.3154   10.9950 H   0  0  0  0  0  0  0  0  0  0  0  0
   -1.3742   22.1268   10.6083 H   0  0  0  0  0  0  0  0  0  0  0  0
   -1.2434   22.9254   12.9699 H   0  0  0  0  0  0  0  0  0  0  0  0
    0.2221   23.3603   12.0266 H   0  0  0  0  0  0  0  0  0  0  0  0
   -2.1477   25.1942   12.6804 H   0  0  0  0  0  0  0  0  0  0  0  0
   -0.4976   25.2825   13.3847 H   0  0  0  0  0  0  0  0  0  0  0  0
    0.4575   25.8452   11.2064 H   0  0  0  0  0  0  0  0  0  0  0  0
   -0.8891   26.9759   11.5737 H   0  0  0  0  0  0  0  0  0  0  0  0
    5.2489   25.2365    5.0459 H   0  0  0  0  0  0  0  0  0  0  0  0
    5.1989   24.2194    7.3147 H   0  0  0  0  0  0  0  0  0  0  0  0
    2.7061   27.4407    8.6982 H   0  0  0  0  0  0  0  0  0  0  0  0
    0.8943   27.2670    7.4687 H   0  0  0  0  0  0  0  0  0  0  0  0
    4.7300   27.6448    5.2450 H   0  0  0  0  0  0  0  0  0  0  0  0
    3.2866   26.6910    4.7617 H   0  0  0  0  0  0  0  0  0  0  0  0
    2.9290   25.6723   11.8504 H   0  0  0  0  0  0  0  0  0  0  0  0
    3.3582   27.1268   10.8878 H   0  0  0  0  0  0  0  0  0  0  0  0
    1.9025   26.1647   10.4611 H   0  0  0  0  0  0  0  0  0  0  0  0
  1 14  1  0  0  0  0
  1 21  2  0  0  0  0
  1 22  1  0  0  0  0
  2 18  2  0  0  0  0
  2 19  1  0  0  0  0
  3  4  1  0  0  0  0
  3 16  1  0  0  0  0
  4  5  1  0  0  0  0
  4  9  1  0  0  0  0
  5  6  1  0  0  0  0
  6  7  1  0  0  0  0
  7  8  1  0  0  0  0
  8  9  1  0  0  0  0
 10 11  2  0  0  0  0
 10 24  1  0  0  0  0
 11 12  1  0  0  0  0
 12 13  2  0  0  0  0
 12 25  1  0  0  0  0
 13 23  1  0  0  0  0
 14 15  1  0  0  0  0
 15 16  1  0  0  0  0
 15 17  2  0  0  0  0
 17 18  1  0  0  0  0
 17 20  1  0  0  0  0
 19 20  2  0  0  0  0
 20 21  1  0  0  0  0
 22 23  2  3  0  0  0
 23 24  1  0  0  0  0
 25 26  1  0  0  0  0
  2 27  1  0  0  0  0
  3 28  1  0  0  0  0
  3 29  1  0  0  0  0
  4 30  1  0  0  0  0
  5 31  1  0  0  0  0
  5 32  1  0  0  0  0
  6 33  1  0  0  0  0
  6 34  1  0  0  0  0
  7 35  1  0  0  0  0
  7 36  1  0  0  0  0
  8 37  1  0  0  0  0
  8 38  1  0  0  0  0
  9 39  1  0  0  0  0
  9 40  1  0  0  0  0
 10 41  1  0  0  0  0
 11 42  1  0  0  0  0
 13 43  1  0  0  0  0
 14 44  1  0  0  0  0
 24 45  1  0  0  0  0
 24 46  1  0  0  0  0
 26 47  1  0  0  0  0
 26 48  1  0  0  0  0
 26 49  1  0  0  0  0
M  END
> <r_user_dG.exp>
-7.862

$$$$
22
  -OEChem-05192314073D
 Structure written by MMmdl.
 49 52  0     0  0  0  0  0  0999 V2000
    1.3901   29.1077    6.7935 C   0  0  0  0  0  0  0  0  0  0  0  0
   -1.6911   31.9130    8.0794 C   0  0  0  0  0  0  0  0  0  0  0  0
   -0.7437   26.3748    8.8319 C   0  0  0  0  0  0  0  0  0  0  0  0
   -1.3142   25.5567    9.9914 C   0  0  0  0  0  0  0  0  0  0  0  0
   -1.1214   24.0589    9.6854 C   0  0  0  0  0  0  0  0  0  0  0  0
   -1.5824   23.1795   10.8502 C   0  0  0  0  0  0  0  0  0  0  0  0
   -0.8551   23.5463   12.1491 C   0  0  0  0  0  0  0  0  0  0  0  0
   -1.0780   25.0277   12.4857 C   0  0  0  0  0  0  0  0  0  0  0  0
   -0.6321   25.9351   11.3273 C   0  0  0  0  0  0  0  0  0  0  0  0
    4.6903   25.7129    5.8380 C   0  0  0  0  0  0  0  0  0  0  0  0
    4.6667   25.1395    7.1233 C   0  0  0  0  0  0  0  0  0  0  0  0
    3.9496   25.7658    8.1576 C   0  0  0  0  0  0  0  0  0  0  0  0
    3.2460   26.9556    7.8985 C   0  0  0  0  0  0  0  0  0  0  0  0
    0.6302   28.2313    7.4508 N   0  0  0  0  0  0  0  0  0  0  0  0
   -0.4898   28.6252    8.0923 C   0  0  0  0  0  0  0  0  0  0  0  0
   -1.1796   27.7315    8.8832 O   0  0  0  0  0  0  0  0  0  0  0  0
   -0.8660   29.9818    8.0000 C   0  0  0  0  0  0  0  0  0  0  0  0
   -1.9251   30.7129    8.5212 N   0  0  0  0  0  0  0  0  0  0  0  0
   -0.5542   32.0464    7.3306 N   0  0  0  0  0  0  0  0  0  0  0  0
   -0.0249   30.7863    7.2610 C   0  0  0  0  0  0  0  0  0  0  0  0
    1.1172   30.4049    6.6113 N   0  0  0  0  0  0  0  0  0  0  0  0
    2.5827   28.6807    6.3360 N   0  0  0  0  0  0  0  0  0  0  0  0
    3.2365   27.5251    6.6032 C   0  0  0  0  0  0  0  0  0  0  0  0
    3.9871   26.9068    5.5819 C   0  0  0  0  0  0  0  0  0  0  0  0
    3.9347   25.0874    9.7381 S   0  0  0  0  0  0  0  0  0  0  0  0
    2.9329   26.1133   10.8427 C   0  0  0  0  0  0  0  0  0  0  0  0
   -2.3473   32.7449    8.2886 H   0  0  0  0  0  0  0  0  0  0  0  0
    0.3548   26.3504    8.8841 H   0  0  0  0  0  0  0  0  0  0  0  0
   -1.0756   25.9287    7.8828 H   0  0  0  0  0  0  0  0  0  0  0  0
   -2.3913   25.7635   10.0760 H   0  0  0  0  0  0  0  0  0  0  0  0
   -1.7056   23.7998    8.7901 H   0  0  0  0  0  0  0  0  0  0  0  0
   -0.0549   23.8683    9.4951 H   0  0  0  0  0  0  0  0  0  0  0  0
   -2.6643   23.3154   10.9950 H   0  0  0  0  0  0  0  0  0  0  0  0
   -1.3742   22.1268   10.6083 H   0  0  0  0  0  0  0  0  0  0  0  0
   -1.2434   22.9254   12.9699 H   0  0  0  0  0  0  0  0  0  0  0  0
    0.2221   23.3603   12.0266 H   0  0  0  0  0  0  0  0  0  0  0  0
   -2.1477   25.1942   12.6804 H   0  0  0  0  0  0  0  0  0  0  0  0
   -0.4976   25.2825   13.3847 H   0  0  0  0  0  0  0  0  0  0  0  0
    0.4575   25.8452   11.2064 H   0  0  0  0  0  0  0  0  0  0  0  0
   -0.8891   26.9759   11.5737 H   0  0  0  0  0  0  0  0  0  0  0  0
    5.2489   25.2365    5.0459 H   0  0  0  0  0  0  0  0  0  0  0  0
    5.1989   24.2194    7.3147 H   0  0  0  0  0  0  0  0  0  0  0  0
    2.1960   26.7631    8.1641 H   0  0  0  0  0  0  0  0  0  0  0  0
    3.6610   27.7186    8.5734 H   0  0  0  0  0  0  0  0  0  0  0  0
    1.6818   31.0231    6.0644 H   0  0  0  0  0  0  0  0  0  0  0  0
    4.0232   27.3508    4.5981 H   0  0  0  0  0  0  0  0  0  0  0  0
    2.9290   25.6723   11.8504 H   0  0  0  0  0  0  0  0  0  0  0  0
    3.3582   27.1268   10.8878 H   0  0  0  0  0  0  0  0  0  0  0  0
    1.9025   26.1647   10.4611 H   0  0  0  0  0  0  0  0  0  0  0  0
  1 14  2  0  0  0  0
  1 21  1  0  0  0  0
  1 22  1  0  0  0  0
  2 18  2  0  0  0  0
  2 19  1  0  0  0  0
  3  4  1  0  0  0  0
  3 16  1  0  0  0  0
  4  5  1  0  0  0  0
  4  9  1  0  0  0  0
  5  6  1  0  0  0  0
  6  7  1  0  0  0  0
  7  8  1  0  0  0  0
  8  9  1  0  0  0  0
 10 11  1  0  0  0  0
 10 24  2  0  0  0  0
 11 12  2  0  0  0  0
 12 13  1  0  0  0  0
 12 25  1  0  0  0  0
 13 23  1  0  0  0  0
 14 15  1  0  0  0  0
 15 16  1  0  0  0  0
 15 17  2  0  0  0  0
 17 18  1  0  0  0  0
 17 20  1  0  0  0  0
 19 20  2  0  0  0  0
 20 21  1  0  0  0  0
 22 23  2  3  0  0  0
 23 24  1  0  0  0  0
 25 26  1  0  0  0  0
  2 27  1  0  0  0  0
  3 28  1  0  0  0  0
  3 29  1  0  0  0  0
  4 30  1  0  0  0  0
  5 31  1  0  0  0  0
  5 32  1  0  0  0  0
  6 33  1  0  0  0  0
  6 34  1  0  0  0  0
  7 35  1  0  0  0  0
  7 36  1  0  0  0  0
  8 37  1  0  0  0  0
  8 38  1  0  0  0  0
  9 39  1  0  0  0  0
  9 40  1  0  0  0  0
 10 41  1  0  0  0  0
 11 42  1  0  0  0  0
 13 43  1  0  0  0  0
 13 44  1  0  0  0  0
 21 45  1  0  0  0  0
 24 46  1  0  0  0  0
 26 47  1  0  0  0  0
 26 48  1  0  0  0  0
 26 49  1  0  0  0  0
M  END
> <r_user_dG.exp>
-7.862

$$$$
22
  -OEChem-05192314073D
 Structure written by MMmdl.
 49 52  0     0  0  0  0  0  0999 V2000
    1.3901   29.1077    6.7935 C   0  0  0  0  0  0  0  0  0  0  0  0
   -1.6911   31.9130    8.0794 C   0  0  0  0  0  0  0  0  0  0  0  0
   -0.7437   26.3748    8.8319 C   0  0  0  0  0  0  0  0  0  0  0  0
   -1.3142   25.5567    9.9914 C   0  0  0  0  0  0  0  0  0  0  0  0
   -1.1214   24.0589    9.6854 C   0  0  0  0  0  0  0  0  0  0  0  0
   -1.5824   23.1795   10.8502 C   0  0  0  0  0  0  0  0  0  0  0  0
   -0.8551   23.5463   12.1491 C   0  0  0  0  0  0  0  0  0  0  0  0
   -1.0780   25.0277   12.4857 C   0  0  0  0  0  0  0  0  0  0  0  0
   -0.6321   25.9351   11.3273 C   0  0  0  0  0  0  0  0  0  0  0  0
    4.6903   25.7129    5.8380 C   0  0  0  0  0  0  0  0  0  0  0  0
    4.6667   25.1395    7.1233 C   0  0  0  0  0  0  0  0  0  0  0  0
    3.9496   25.7658    8.1576 C   0  0  0  0  0  0  0  0  0  0  0  0
    3.2460   26.9556    7.8985 C   0  0  0  0  0  0  0  0  0  0  0  0
    0.6302   28.2313    7.4508 N   0  0  0  0  0  0  0  0  0  0  0  0
   -0.4898   28.6252    8.0923 C   0  0  0  0  0  0  0  0  0  0  0  0
   -1.1796   27.7315    8.8832 O   0  0  0  0  0  0  0  0  0  0  0  0
   -0.8660   29.9818    8.0000 C   0  0  0  0  0  0  0  0  0  0  0  0
   -1.9251   30.7129    8.5212 N   0  0  0  0  0  0  0  0  0  0  0  0
   -0.5542   32.0464    7.3306 N   0  0  0  0  0  0  0  0  0  0  0  0
   -0.0249   30.7863    7.2610 C   0  0  0  0  0  0  0  0  0  0  0  0
    1.1172   30.4049    6.6113 N   0  0  0  0  0  0  0  0  0  0  0  0
    2.5827   28.6807    6.3360 N   0  0  0  0  0  0  0  0  0  0  0  0
    3.2365   27.5251    6.6032 C   0  0  0  0  0  0  0  0  0  0  0  0
    3.9871   26.9068    5.5819 C   0  0  0  0  0  0  0  0  0  0  0  0
    3.9347   25.0874    9.7381 S   0  0  0  0  0  0  0  0  0  0  0  0
    2.9329   26.1133   10.8427 C   0  0  0  0  0  0  0  0  0  0  0  0
   -2.3473   32.7449    8.2886 H   0  0  0  0  0  0  0  0  0  0  0  0
    0.3548   26.3504    8.8841 H   0  0  0  0  0  0  0  0  0  0  0  0
   -1.0756   25.9287    7.8828 H   0  0  0  0  0  0  0  0  0  0  0  0
   -2.3913   25.7635   10.0760 H   0  0  0  0  0  0  0  0  0  0  0  0
   -1.7056   23.7998    8.7901 H   0  0  0  0  0  0  0  0  0  0  0  0
   -0.0549   23.8683    9.4951 H   0  0  0  0  0  0  0  0  0  0  0  0
   -2.6643   23.3154   10.9950 H   0  0  0  0  0  0  0  0  0  0  0  0
   -1.3742   22.1268   10.6083 H   0  0  0  0  0  0  0  0  0  0  0  0
   -1.2434   22.9254   12.9699 H   0  0  0  0  0  0  0  0  0  0  0  0
    0.2221   23.3603   12.0266 H   0  0  0  0  0  0  0  0  0  0  0  0
   -2.1477   25.1942   12.6804 H   0  0  0  0  0  0  0  0  0  0  0  0
   -0.4976   25.2825   13.3847 H   0  0  0  0  0  0  0  0  0  0  0  0
    0.4575   25.8452   11.2064 H   0  0  0  0  0  0  0  0  0  0  0  0
   -0.8891   26.9759   11.5737 H   0  0  0  0  0  0  0  0  0  0  0  0
    5.2489   25.2365    5.0459 H   0  0  0  0  0  0  0  0  0  0  0  0
    5.1989   24.2194    7.3147 H   0  0  0  0  0  0  0  0  0  0  0  0
    2.1960   26.7631    8.1641 H   0  0  0  0  0  0  0  0  0  0  0  0
    3.6610   27.7186    8.5734 H   0  0  0  0  0  0  0  0  0  0  0  0
    0.8943   27.2670    7.4687 H   0  0  0  0  0  0  0  0  0  0  0  0
    4.0232   27.3508    4.5981 H   0  0  0  0  0  0  0  0  0  0  0  0
    2.9290   25.6723   11.8504 H   0  0  0  0  0  0  0  0  0  0  0  0
    3.3582   27.1268   10.8878 H   0  0  0  0  0  0  0  0  0  0  0  0
    1.9025   26.1647   10.4611 H   0  0  0  0  0  0  0  0  0  0  0  0
  1 14  1  0  0  0  0
  1 21  2  0  0  0  0
  1 22  1  0  0  0  0
  2 18  2  0  0  0  0
  2 19  1  0  0  0  0
  3  4  1  0  0  0  0
  3 16  1  0  0  0  0
  4  5  1  0  0  0  0
  4  9  1  0  0  0  0
  5  6  1  0  0  0  0
  6  7  1  0  0  0  0
  7  8  1  0  0  0  0
  8  9  1  0  0  0  0
 10 11  1  0  0  0  0
 10 24  2  0  0  0  0
 11 12  2  0  0  0  0
 12 13  1  0  0  0  0
 12 25  1  0  0  0  0
 13 23  1  0  0  0  0
 14 15  1  0  0  0  0
 15 16  1  0  0  0  0
 15 17  2  0  0  0  0
 17 18  1  0  0  0  0
 17 20  1  0  0  0  0
 19 20  2  0  0  0  0
 20 21  1  0  0  0  0
 22 23  2  3  0  0  0
 23 24  1  0  0  0  0
 25 26  1  0  0  0  0
  2 27  1  0  0  0  0
  3 28  1  0  0  0  0
  3 29  1  0  0  0  0
  4 30  1  0  0  0  0
  5 31  1  0  0  0  0
  5 32  1  0  0  0  0
  6 33  1  0  0  0  0
  6 34  1  0  0  0  0
  7 35  1  0  0  0  0
  7 36  1  0  0  0  0
  8 37  1  0  0  0  0
  8 38  1  0  0  0  0
  9 39  1  0  0  0  0
  9 40  1  0  0  0  0
 10 41  1  0  0  0  0
 11 42  1  0  0  0  0
 13 43  1  0  0  0  0
 13 44  1  0  0  0  0
 14 45  1  0  0  0  0
 24 46  1  0  0  0  0
 26 47  1  0  0  0  0
 26 48  1  0  0  0  0
 26 49  1  0  0  0  0
M  END
> <r_user_dG.exp>
-7.862

$$$$
22
  -OEChem-05192314073D
 Structure written by MMmdl.
 49 52  0     1  0  0  0  0  0999 V2000
    1.3901   29.1077    6.7935 C   0  0  0  0  0  0  0  0  0  0  0  0
   -1.6911   31.9130    8.0794 C   0  0  0  0  0  0  0  0  0  0  0  0
   -0.7437   26.3748    8.8319 C   0  0  0  0  0  0  0  0  0  0  0  0
   -1.3142   25.5567    9.9914 C   0  0  0  0  0  0  0  0  0  0  0  0
   -1.1214   24.0589    9.6854 C   0  0  0  0  0  0  0  0  0  0  0  0
   -1.5824   23.1795   10.8502 C   0  0  0  0  0  0  0  0  0  0  0  0
   -0.8551   23.5463   12.1491 C   0  0  0  0  0  0  0  0  0  0  0  0
   -1.0780   25.0277   12.4857 C   0  0  0  0  0  0  0  0  0  0  0  0
   -0.6321   25.9351   11.3273 C   0  0  0  0  0  0  0  0  0  0  0  0
    4.6903   25.7129    5.8380 C   0  0  0  0  0  0  0  0  0  0  0  0
    4.6667   25.1395    7.1233 C   0  0  0  0  0  0  0  0  0  0  0  0
    3.9496   25.7658    8.1576 C   0  0  0  0  0  0  0  0  0  0  0  0
    3.2460   26.9556    7.8985 C   0  0  0  0  0  0  0  0  0  0  0  0
    0.6302   28.2313    7.4508 N   0  0  0  0  0  0  0  0  0  0  0  0
   -0.4898   28.6252    8.0923 C   0  0  0  0  0  0  0  0  0  0  0  0
   -1.1796   27.7315    8.8832 O   0  0  0  0  0  0  0  0  0  0  0  0
   -0.8660   29.9818    8.0000 C   0  0  3  0  0  0  0  0  0  0  0  0
   -1.9251   30.7129    8.5212 N   0  0  0  0  0  0  0  0  0  0  0  0
   -0.5542   32.0464    7.3306 N   0  0  0  0  0  0  0  0  0  0  0  0
   -0.0249   30.7863    7.2610 C   0  0  0  0  0  0  0  0  0  0  0  0
    1.1172   30.4049    6.6113 N   0  0  0  0  0  0  0  0  0  0  0  0
    2.5827   28.6807    6.3360 N   0  0  0  0  0  0  0  0  0  0  0  0
    3.2365   27.5251    6.6032 C   0  0  0  0  0  0  0  0  0  0  0  0
    3.9871   26.9068    5.5819 C   0  0  0  0  0  0  0  0  0  0  0  0
    3.9347   25.0874    9.7381 S   0  0  0  0  0  0  0  0  0  0  0  0
    2.9329   26.1133   10.8427 C   0  0  0  0  0  0  0  0  0  0  0  0
   -2.3473   32.7449    8.2886 H   0  0  0  0  0  0  0  0  0  0  0  0
    0.3548   26.3504    8.8841 H   0  0  0  0  0  0  0  0  0  0  0  0
   -1.0756   25.9287    7.8828 H   0  0  0  0  0  0  0  0  0  0  0  0
   -2.3913   25.7635   10.0760 H   0  0  0  0  0  0  0  0  0  0  0  0
   -1.7056   23.7998    8.7901 H   0  0  0  0  0  0  0  0  0  0  0  0
   -0.0549   23.8683    9.4951 H   0  0  0  0  0  0  0  0  0  0  0  0
   -2.6643   23.3154   10.9950 H   0  0  0  0  0  0  0  0  0  0  0  0
   -1.3742   22.1268   10.6083 H   0  0  0  0  0  0  0  0  0  0  0  0
   -1.2434   22.9254   12.9699 H   0  0  0  0  0  0  0  0  0  0  0  0
    0.2221   23.3603   12.0266 H   0  0  0  0  0  0  0  0  0  0  0  0
   -2.1477   25.1942   12.6804 H   0  0  0  0  0  0  0  0  0  0  0  0
   -0.4976   25.2825   13.3847 H   0  0  0  0  0  0  0  0  0  0  0  0
    0.4575   25.8452   11.2064 H   0  0  0  0  0  0  0  0  0  0  0  0
   -0.8891   26.9759   11.5737 H   0  0  0  0  0  0  0  0  0  0  0  0
    5.2489   25.2365    5.0459 H   0  0  0  0  0  0  0  0  0  0  0  0
    5.1989   24.2194    7.3147 H   0  0  0  0  0  0  0  0  0  0  0  0
    2.7061   27.4407    8.6982 H   0  0  0  0  0  0  0  0  0  0  0  0
   -1.4557   29.7617    7.0979 H   0  0  0  0  0  0  0  0  0  0  0  0
    3.0515   29.3048    5.7110 H   0  0  0  0  0  0  0  0  0  0  0  0
    4.0232   27.3508    4.5981 H   0  0  0  0  0  0  0  0  0  0  0  0
    2.9290   25.6723   11.8504 H   0  0  0  0  0  0  0  0  0  0  0  0
    3.3582   27.1268   10.8878 H   0  0  0  0  0  0  0  0  0  0  0  0
    1.9025   26.1647   10.4611 H   0  0  0  0  0  0  0  0  0  0  0  0
  1 14  1  0  0  0  0
  1 21  2  0  0  0  0
  1 22  1  0  0  0  0
  2 18  2  0  0  0  0
  2 19  1  0  0  0  0
  3  4  1  0  0  0  0
  3 16  1  0  0  0  0
  4  5  1  0  0  0  0
  4  9  1  0  0  0  0
  5  6  1  0  0  0  0
  6  7  1  0  0  0  0
  7  8  1  0  0  0  0
  8  9  1  0  0  0  0
 10 11  2  0  0  0  0
 10 24  1  0  0  0  0
 11 12  1  0  0  0  0
 12 13  2  0  0  0  0
 12 25  1  0  0  0  0
 13 23  1  0  0  0  0
 14 15  2  0  0  0  0
 15 16  1  0  0  0  0
 15 17  1  0  0  0  0
 17 18  1  0  0  0  0
 17 20  1  0  0  0  0
 19 20  2  0  0  0  0
 20 21  1  0  0  0  0
 22 23  1  0  0  0  0
 23 24  2  0  0  0  0
 25 26  1  0  0  0  0
  2 27  1  0  0  0  0
  3 28  1  0  0  0  0
  3 29  1  0  0  0  0
  4 30  1  0  0  0  0
  5 31  1  0  0  0  0
  5 32  1  0  0  0  0
  6 33  1  0  0  0  0
  6 34  1  0  0  0  0
  7 35  1  0  0  0  0
  7 36  1  0  0  0  0
  8 37  1  0  0  0  0
  8 38  1  0  0  0  0
  9 39  1  0  0  0  0
  9 40  1  0  0  0  0
 10 41  1  0  0  0  0
 11 42  1  0  0  0  0
 13 43  1  0  0  0  0
 17 44  1  0  0  0  0
 22 45  1  0  0  0  0
 24 46  1  0  0  0  0
 26 47  1  0  0  0  0
 26 48  1  0  0  0  0
 26 49  1  0  0  0  0
M  END
> <r_user_dG.exp>
-7.862

$$$$
22
  -OEChem-05192314073D
 Structure written by MMmdl.
 49 52  0     1  0  0  0  0  0999 V2000
    1.3901   29.1077    6.7935 C   0  0  0  0  0  0  0  0  0  0  0  0
   -1.6911   31.9130    8.0794 C   0  0  0  0  0  0  0  0  0  0  0  0
   -0.7437   26.3748    8.8319 C   0  0  0  0  0  0  0  0  0  0  0  0
   -1.3142   25.5567    9.9914 C   0  0  0  0  0  0  0  0  0  0  0  0
   -1.1214   24.0589    9.6854 C   0  0  0  0  0  0  0  0  0  0  0  0
   -1.5824   23.1795   10.8502 C   0  0  0  0  0  0  0  0  0  0  0  0
   -0.8551   23.5463   12.1491 C   0  0  0  0  0  0  0  0  0  0  0  0
   -1.0780   25.0277   12.4857 C   0  0  0  0  0  0  0  0  0  0  0  0
   -0.6321   25.9351   11.3273 C   0  0  0  0  0  0  0  0  0  0  0  0
    4.6903   25.7129    5.8380 C   0  0  0  0  0  0  0  0  0  0  0  0
    4.6667   25.1395    7.1233 C   0  0  0  0  0  0  0  0  0  0  0  0
    3.9496   25.7658    8.1576 C   0  0  0  0  0  0  0  0  0  0  0  0
    3.2460   26.9556    7.8985 C   0  0  0  0  0  0  0  0  0  0  0  0
    0.6302   28.2313    7.4508 N   0  0  0  0  0  0  0  0  0  0  0  0
   -0.4898   28.6252    8.0923 C   0  0  0  0  0  0  0  0  0  0  0  0
   -1.1796   27.7315    8.8832 O   0  0  0  0  0  0  0  0  0  0  0  0
   -0.8660   29.9818    8.0000 C   0  0  3  0  0  0  0  0  0  0  0  0
   -1.9251   30.7129    8.5212 N   0  0  0  0  0  0  0  0  0  0  0  0
   -0.5542   32.0464    7.3306 N   0  0  0  0  0  0  0  0  0  0  0  0
   -0.0249   30.7863    7.2610 C   0  0  0  0  0  0  0  0  0  0  0  0
    1.1172   30.4049    6.6113 N   0  0  0  0  0  0  0  0  0  0  0  0
    2.5827   28.6807    6.3360 N   0  0  0  0  0  0  0  0  0  0  0  0
    3.2365   27.5251    6.6032 C   0  0  0  0  0  0  0  0  0  0  0  0
    3.9871   26.9068    5.5819 C   0  0  0  0  0  0  0  0  0  0  0  0
    3.9347   25.0874    9.7381 S   0  0  0  0  0  0  0  0  0  0  0  0
    2.9329   26.1133   10.8427 C   0  0  0  0  0  0  0  0  0  0  0  0
   -2.3473   32.7449    8.2886 H   0  0  0  0  0  0  0  0  0  0  0  0
    0.3548   26.3504    8.8841 H   0  0  0  0  0  0  0  0  0  0  0  0
   -1.0756   25.9287    7.8828 H   0  0  0  0  0  0  0  0  0  0  0  0
   -2.3913   25.7635   10.0760 H   0  0  0  0  0  0  0  0  0  0  0  0
   -1.7056   23.7998    8.7901 H   0  0  0  0  0  0  0  0  0  0  0  0
   -0.0549   23.8683    9.4951 H   0  0  0  0  0  0  0  0  0  0  0  0
   -2.6643   23.3154   10.9950 H   0  0  0  0  0  0  0  0  0  0  0  0
   -1.3742   22.1268   10.6083 H   0  0  0  0  0  0  0  0  0  0  0  0
   -1.2434   22.9254   12.9699 H   0  0  0  0  0  0  0  0  0  0  0  0
    0.2221   23.3603   12.0266 H   0  0  0  0  0  0  0  0  0  0  0  0
   -2.1477   25.1942   12.6804 H   0  0  0  0  0  0  0  0  0  0  0  0
   -0.4976   25.2825   13.3847 H   0  0  0  0  0  0  0  0  0  0  0  0
    0.4575   25.8452   11.2064 H   0  0  0  0  0  0  0  0  0  0  0  0
   -0.8891   26.9759   11.5737 H   0  0  0  0  0  0  0  0  0  0  0  0
    5.2489   25.2365    5.0459 H   0  0  0  0  0  0  0  0  0  0  0  0
    5.1989   24.2194    7.3147 H   0  0  0  0  0  0  0  0  0  0  0  0
    2.7061   27.4407    8.6982 H   0  0  0  0  0  0  0  0  0  0  0  0
   -1.4557   29.7617    7.0979 H   0  0  0  0  0  0  0  0  0  0  0  0
   -2.6805   30.3952    9.0943 H   0  0  0  0  0  0  0  0  0  0  0  0
    4.0232   27.3508    4.5981 H   0  0  0  0  0  0  0  0  0  0  0  0
    2.9290   25.6723   11.8504 H   0  0  0  0  0  0  0  0  0  0  0  0
    3.3582   27.1268   10.8878 H   0  0  0  0  0  0  0  0  0  0  0  0
    1.9025   26.1647   10.4611 H   0  0  0  0  0  0  0  0  0  0  0  0
  1 14  1  0  0  0  0
  1 21  1  0  0  0  0
  1 22  2  0  0  0  0
  2 18  1  0  0  0  0
  2 19  2  0  0  0  0
  3  4  1  0  0  0  0
  3 16  1  0  0  0  0
  4  5  1  0  0  0  0
  4  9  1  0  0  0  0
  5  6  1  0  0  0  0
  6  7  1  0  0  0  0
  7  8  1  0  0  0  0
  8  9  1  0  0  0  0
 10 11  2  0  0  0  0
 10 24  1  0  0  0  0
 11 12  1  0  0  0  0
 12 13  2  0  0  0  0
 12 25  1  0  0  0  0
 13 23  1  0  0  0  0
 14 15  2  0  0  0  0
 15 16  1  0  0  0  0
 15 17  1  0  0  0  0
 17 18  1  0  0  0  0
 17 20  1  0  0  0  0
 19 20  1  0  0  0  0
 20 21  2  0  0  0  0
 22 23  1  0  0  0  0
 23 24  2  0  0  0  0
 25 26  1  0  0  0  0
  2 27  1  0  0  0  0
  3 28  1  0  0  0  0
  3 29  1  0  0  0  0
  4 30  1  0  0  0  0
  5 31  1  0  0  0  0
  5 32  1  0  0  0  0
  6 33  1  0  0  0  0
  6 34  1  0  0  0  0
  7 35  1  0  0  0  0
  7 36  1  0  0  0  0
  8 37  1  0  0  0  0
  8 38  1  0  0  0  0
  9 39  1  0  0  0  0
  9 40  1  0  0  0  0
 10 41  1  0  0  0  0
 11 42  1  0  0  0  0
 13 43  1  0  0  0  0
 17 44  1  0  0  0  0
 18 45  1  0  0  0  0
 24 46  1  0  0  0  0
 26 47  1  0  0  0  0
 26 48  1  0  0  0  0
 26 49  1  0  0  0  0
M  END
> <r_user_dG.exp>
-7.862

$$$$
22
  -OEChem-05192314073D
 Structure written by MMmdl.
 49 52  0     1  0  0  0  0  0999 V2000
    1.3901   29.1077    6.7935 C   0  0  0  0  0  0  0  0  0  0  0  0
   -1.6911   31.9130    8.0794 C   0  0  0  0  0  0  0  0  0  0  0  0
   -0.7437   26.3748    8.8319 C   0  0  0  0  0  0  0  0  0  0  0  0
   -1.3142   25.5567    9.9914 C   0  0  0  0  0  0  0  0  0  0  0  0
   -1.1214   24.0589    9.6854 C   0  0  0  0  0  0  0  0  0  0  0  0
   -1.5824   23.1795   10.8502 C   0  0  0  0  0  0  0  0  0  0  0  0
   -0.8551   23.5463   12.1491 C   0  0  0  0  0  0  0  0  0  0  0  0
   -1.0780   25.0277   12.4857 C   0  0  0  0  0  0  0  0  0  0  0  0
   -0.6321   25.9351   11.3273 C   0  0  0  0  0  0  0  0  0  0  0  0
    4.6903   25.7129    5.8380 C   0  0  0  0  0  0  0  0  0  0  0  0
    4.6667   25.1395    7.1233 C   0  0  0  0  0  0  0  0  0  0  0  0
    3.9496   25.7658    8.1576 C   0  0  0  0  0  0  0  0  0  0  0  0
    3.2460   26.9556    7.8985 C   0  0  0  0  0  0  0  0  0  0  0  0
    0.6302   28.2313    7.4508 N   0  0  0  0  0  0  0  0  0  0  0  0
   -0.4898   28.6252    8.0923 C   0  0  0  0  0  0  0  0  0  0  0  0
   -1.1796   27.7315    8.8832 O   0  0  0  0  0  0  0  0  0  0  0  0
   -0.8660   29.9818    8.0000 C   0  0  3  0  0  0  0  0  0  0  0  0
   -1.9251   30.7129    8.5212 N   0  0  0  0  0  0  0  0  0  0  0  0
   -0.5542   32.0464    7.3306 N   0  0  0  0  0  0  0  0  0  0  0  0
   -0.0249   30.7863    7.2610 C   0  0  0  0  0  0  0  0  0  0  0  0
    1.1172   30.4049    6.6113 N   0  0  0  0  0  0  0  0  0  0  0  0
    2.5827   28.6807    6.3360 N   0  0  0  0  0  0  0  0  0  0  0  0
    3.2365   27.5251    6.6032 C   0  0  0  0  0  0  0  0  0  0  0  0
    3.9871   26.9068    5.5819 C   0  0  0  0  0  0  0  0  0  0  0  0
    3.9347   25.0874    9.7381 S   0  0  0  0  0  0  0  0  0  0  0  0
    2.9329   26.1133   10.8427 C   0  0  0  0  0  0  0  0  0  0  0  0
   -2.3473   32.7449    8.2886 H   0  0  0  0  0  0  0  0  0  0  0  0
    0.3548   26.3504    8.8841 H   0  0  0  0  0  0  0  0  0  0  0  0
   -1.0756   25.9287    7.8828 H   0  0  0  0  0  0  0  0  0  0  0  0
   -2.3913   25.7635   10.0760 H   0  0  0  0  0  0  0  0  0  0  0  0
   -1.7056   23.7998    8.7901 H   0  0  0  0  0  0  0  0  0  0  0  0
   -0.0549   23.8683    9.4951 H   0  0  0  0  0  0  0  0  0  0  0  0
   -2.6643   23.3154   10.9950 H   0  0  0  0  0  0  0  0  0  0  0  0
   -1.3742   22.1268   10.6083 H   0  0  0  0  0  0  0  0  0  0  0  0
   -1.2434   22.9254   12.9699 H   0  0  0  0  0  0  0  0  0  0  0  0
    0.2221   23.3603   12.0266 H   0  0  0  0  0  0  0  0  0  0  0  0
   -2.1477   25.1942   12.6804 H   0  0  0  0  0  0  0  0  0  0  0  0
   -0.4976   25.2825   13.3847 H   0  0  0  0  0  0  0  0  0  0  0  0
    0.4575   25.8452   11.2064 H   0  0  0  0  0  0  0  0  0  0  0  0
   -0.8891   26.9759   11.5737 H   0  0  0  0  0  0  0  0  0  0  0  0
    5.2489   25.2365    5.0459 H   0  0  0  0  0  0  0  0  0  0  0  0
    5.1989   24.2194    7.3147 H   0  0  0  0  0  0  0  0  0  0  0  0
    2.7061   27.4407    8.6982 H   0  0  0  0  0  0  0  0  0  0  0  0
   -1.4557   29.7617    7.0979 H   0  0  0  0  0  0  0  0  0  0  0  0
    1.6818   31.0231    6.0644 H   0  0  0  0  0  0  0  0  0  0  0  0
    4.0232   27.3508    4.5981 H   0  0  0  0  0  0  0  0  0  0  0  0
    2.9290   25.6723   11.8504 H   0  0  0  0  0  0  0  0  0  0  0  0
    3.3582   27.1268   10.8878 H   0  0  0  0  0  0  0  0  0  0  0  0
    1.9025   26.1647   10.4611 H   0  0  0  0  0  0  0  0  0  0  0  0
  1 14  1  0  0  0  0
  1 21  1  0  0  0  0
  1 22  2  0  0  0  0
  2 18  2  0  0  0  0
  2 19  1  0  0  0  0
  3  4  1  0  0  0  0
  3 16  1  0  0  0  0
  4  5  1  0  0  0  0
  4  9  1  0  0  0  0
  5  6  1  0  0  0  0
  6  7  1  0  0  0  0
  7  8  1  0  0  0  0
  8  9  1  0  0  0  0
 10 11  2  0  0  0  0
 10 24  1  0  0  0  0
 11 12  1  0  0  0  0
 12 13  2  0  0  0  0
 12 25  1  0  0  0  0
 13 23  1  0  0  0  0
 14 15  2  0  0  0  0
 15 16  1  0  0  0  0
 15 17  1  0  0  0  0
 17 18  1  0  0  0  0
 17 20  1  0  0  0  0
 19 20  2  0  0  0  0
 20 21  1  0  0  0  0
 22 23  1  0  0  0  0
 23 24  2  0  0  0  0
 25 26  1  0  0  0  0
  2 27  1  0  0  0  0
  3 28  1  0  0  0  0
  3 29  1  0  0  0  0
  4 30  1  0  0  0  0
  5 31  1  0  0  0  0
  5 32  1  0  0  0  0
  6 33  1  0  0  0  0
  6 34  1  0  0  0  0
  7 35  1  0  0  0  0
  7 36  1  0  0  0  0
  8 37  1  0  0  0  0
  8 38  1  0  0  0  0
  9 39  1  0  0  0  0
  9 40  1  0  0  0  0
 10 41  1  0  0  0  0
 11 42  1  0  0  0  0
 13 43  1  0  0  0  0
 17 44  1  0  0  0  0
 21 45  1  0  0  0  0
 24 46  1  0  0  0  0
 26 47  1  0  0  0  0
 26 48  1  0  0  0  0
 26 49  1  0  0  0  0
M  END
> <r_user_dG.exp>
-7.862

$$$$
22
  -OEChem-05192314073D
 Structure written by MMmdl.
 49 52  0     1  0  0  0  0  0999 V2000
    1.3901   29.1077    6.7935 C   0  0  0  0  0  0  0  0  0  0  0  0
   -1.6911   31.9130    8.0794 C   0  0  0  0  0  0  0  0  0  0  0  0
   -0.7437   26.3748    8.8319 C   0  0  0  0  0  0  0  0  0  0  0  0
   -1.3142   25.5567    9.9914 C   0  0  0  0  0  0  0  0  0  0  0  0
   -1.1214   24.0589    9.6854 C   0  0  0  0  0  0  0  0  0  0  0  0
   -1.5824   23.1795   10.8502 C   0  0  0  0  0  0  0  0  0  0  0  0
   -0.8551   23.5463   12.1491 C   0  0  0  0  0  0  0  0  0  0  0  0
   -1.0780   25.0277   12.4857 C   0  0  0  0  0  0  0  0  0  0  0  0
   -0.6321   25.9351   11.3273 C   0  0  0  0  0  0  0  0  0  0  0  0
    4.6903   25.7129    5.8380 C   0  0  0  0  0  0  0  0  0  0  0  0
    4.6667   25.1395    7.1233 C   0  0  0  0  0  0  0  0  0  0  0  0
    3.9496   25.7658    8.1576 C   0  0  0  0  0  0  0  0  0  0  0  0
    3.2460   26.9556    7.8985 C   0  0  0  0  0  0  0  0  0  0  0  0
    0.6302   28.2313    7.4508 N   0  0  0  0  0  0  0  0  0  0  0  0
   -0.4898   28.6252    8.0923 C   0  0  0  0  0  0  0  0  0  0  0  0
   -1.1796   27.7315    8.8832 O   0  0  0  0  0  0  0  0  0  0  0  0
   -0.8660   29.9818    8.0000 C   0  0  3  0  0  0  0  0  0  0  0  0
   -1.9251   30.7129    8.5212 N   0  0  0  0  0  0  0  0  0  0  0  0
   -0.5542   32.0464    7.3306 N   0  0  0  0  0  0  0  0  0  0  0  0
   -0.0249   30.7863    7.2610 C   0  0  0  0  0  0  0  0  0  0  0  0
    1.1172   30.4049    6.6113 N   0  0  0  0  0  0  0  0  0  0  0  0
    2.5827   28.6807    6.3360 N   0  0  0  0  0  0  0  0  0  0  0  0
    3.2365   27.5251    6.6032 C   0  0  0  0  0  0  0  0  0  0  0  0
    3.9871   26.9068    5.5819 C   0  0  0  0  0  0  0  0  0  0  0  0
    3.9347   25.0874    9.7381 S   0  0  0  0  0  0  0  0  0  0  0  0
    2.9329   26.1133   10.8427 C   0  0  0  0  0  0  0  0  0  0  0  0
   -2.3473   32.7449    8.2886 H   0  0  0  0  0  0  0  0  0  0  0  0
    0.3548   26.3504    8.8841 H   0  0  0  0  0  0  0  0  0  0  0  0
   -1.0756   25.9287    7.8828 H   0  0  0  0  0  0  0  0  0  0  0  0
   -2.3913   25.7635   10.0760 H   0  0  0  0  0  0  0  0  0  0  0  0
   -1.7056   23.7998    8.7901 H   0  0  0  0  0  0  0  0  0  0  0  0
   -0.0549   23.8683    9.4951 H   0  0  0  0  0  0  0  0  0  0  0  0
   -2.6643   23.3154   10.9950 H   0  0  0  0  0  0  0  0  0  0  0  0
   -1.3742   22.1268   10.6083 H   0  0  0  0  0  0  0  0  0  0  0  0
   -1.2434   22.9254   12.9699 H   0  0  0  0  0  0  0  0  0  0  0  0
    0.2221   23.3603   12.0266 H   0  0  0  0  0  0  0  0  0  0  0  0
   -2.1477   25.1942   12.6804 H   0  0  0  0  0  0  0  0  0  0  0  0
   -0.4976   25.2825   13.3847 H   0  0  0  0  0  0  0  0  0  0  0  0
    0.4575   25.8452   11.2064 H   0  0  0  0  0  0  0  0  0  0  0  0
   -0.8891   26.9759   11.5737 H   0  0  0  0  0  0  0  0  0  0  0  0
    5.2489   25.2365    5.0459 H   0  0  0  0  0  0  0  0  0  0  0  0
    5.1989   24.2194    7.3147 H   0  0  0  0  0  0  0  0  0  0  0  0
    2.7061   27.4407    8.6982 H   0  0  0  0  0  0  0  0  0  0  0  0
   -1.4557   29.7617    7.0979 H   0  0  0  0  0  0  0  0  0  0  0  0
   -0.1890   32.8832    6.9226 H   0  0  0  0  0  0  0  0  0  0  0  0
    4.0232   27.3508    4.5981 H   0  0  0  0  0  0  0  0  0  0  0  0
    2.9290   25.6723   11.8504 H   0  0  0  0  0  0  0  0  0  0  0  0
    3.3582   27.1268   10.8878 H   0  0  0  0  0  0  0  0  0  0  0  0
    1.9025   26.1647   10.4611 H   0  0  0  0  0  0  0  0  0  0  0  0
  1 14  1  0  0  0  0
  1 21  1  0  0  0  0
  1 22  2  0  0  0  0
  2 18  2  0  0  0  0
  2 19  1  0  0  0  0
  3  4  1  0  0  0  0
  3 16  1  0  0  0  0
  4  5  1  0  0  0  0
  4  9  1  0  0  0  0
  5  6  1  0  0  0  0
  6  7  1  0  0  0  0
  7  8  1  0  0  0  0
  8  9  1  0  0  0  0
 10 11  2  0  0  0  0
 10 24  1  0  0  0  0
 11 12  1  0  0  0  0
 12 13  2  0  0  0  0
 12 25  1  0  0  0  0
 13 23  1  0  0  0  0
 14 15  2  0  0  0  0
 15 16  1  0  0  0  0
 15 17  1  0  0  0  0
 17 18  1  0  0  0  0
 17 20  1  0  0  0  0
 19 20  1  0  0  0  0
 20 21  2  0  0  0  0
 22 23  1  0  0  0  0
 23 24  2  0  0  0  0
 25 26  1  0  0  0  0
  2 27  1  0  0  0  0
  3 28  1  0  0  0  0
  3 29  1  0  0  0  0
  4 30  1  0  0  0  0
  5 31  1  0  0  0  0
  5 32  1  0  0  0  0
  6 33  1  0  0  0  0
  6 34  1  0  0  0  0
  7 35  1  0  0  0  0
  7 36  1  0  0  0  0
  8 37  1  0  0  0  0
  8 38  1  0  0  0  0
  9 39  1  0  0  0  0
  9 40  1  0  0  0  0
 10 41  1  0  0  0  0
 11 42  1  0  0  0  0
 13 43  1  0  0  0  0
 17 44  1  0  0  0  0
 19 45  1  0  0  0  0
 24 46  1  0  0  0  0
 26 47  1  0  0  0  0
 26 48  1  0  0  0  0
 26 49  1  0  0  0  0
M  END
> <r_user_dG.exp>
-7.862

$$$$
22
  -OEChem-05192314073D
 Structure written by MMmdl.
 49 52  0     1  0  0  0  0  0999 V2000
    1.3901   29.1077    6.7935 C   0  0  0  0  0  0  0  0  0  0  0  0
   -1.6911   31.9130    8.0794 C   0  0  0  0  0  0  0  0  0  0  0  0
   -0.7437   26.3748    8.8319 C   0  0  0  0  0  0  0  0  0  0  0  0
   -1.3142   25.5567    9.9914 C   0  0  0  0  0  0  0  0  0  0  0  0
   -1.1214   24.0589    9.6854 C   0  0  0  0  0  0  0  0  0  0  0  0
   -1.5824   23.1795   10.8502 C   0  0  0  0  0  0  0  0  0  0  0  0
   -0.8551   23.5463   12.1491 C   0  0  0  0  0  0  0  0  0  0  0  0
   -1.0780   25.0277   12.4857 C   0  0  0  0  0  0  0  0  0  0  0  0
   -0.6321   25.9351   11.3273 C   0  0  0  0  0  0  0  0  0  0  0  0
    4.6903   25.7129    5.8380 C   0  0  0  0  0  0  0  0  0  0  0  0
    4.6667   25.1395    7.1233 C   0  0  0  0  0  0  0  0  0  0  0  0
    3.9496   25.7658    8.1576 C   0  0  0  0  0  0  0  0  0  0  0  0
    3.2460   26.9556    7.8985 C   0  0  0  0  0  0  0  0  0  0  0  0
    0.6302   28.2313    7.4508 N   0  0  0  0  0  0  0  0  0  0  0  0
   -0.4898   28.6252    8.0923 C   0  0  0  0  0  0  0  0  0  0  0  0
   -1.1796   27.7315    8.8832 O   0  0  0  0  0  0  0  0  0  0  0  0
   -0.8660   29.9818    8.0000 C   0  0  0  0  0  0  0  0  0  0  0  0
   -1.9251   30.7129    8.5212 N   0  0  0  0  0  0  0  0  0  0  0  0
   -0.5542   32.0464    7.3306 N   0  0  0  0  0  0  0  0  0  0  0  0
   -0.0249   30.7863    7.2610 C   0  0  3  0  0  0  0  0  0  0  0  0
    1.1172   30.4049    6.6113 N   0  0  0  0  0  0  0  0  0  0  0  0
    2.5827   28.6807    6.3360 N   0  0  0  0  0  0  0  0  0  0  0  0
    3.2365   27.5251    6.6032 C   0  0  0  0  0  0  0  0  0  0  0  0
    3.9871   26.9068    5.5819 C   0  0  0  0  0  0  0  0  0  0  0  0
    3.9347   25.0874    9.7381 S   0  0  0  0  0  0  0  0  0  0  0  0
    2.9329   26.1133   10.8427 C   0  0  0  0  0  0  0  0  0  0  0  0
   -2.3473   32.7449    8.2886 H   0  0  0  0  0  0  0  0  0  0  0  0
    0.3548   26.3504    8.8841 H   0  0  0  0  0  0  0  0  0  0  0  0
   -1.0756   25.9287    7.8828 H   0  0  0  0  0  0  0  0  0  0  0  0
   -2.3913   25.7635   10.0760 H   0  0  0  0  0  0  0  0  0  0  0  0
   -1.7056   23.7998    8.7901 H   0  0  0  0  0  0  0  0  0  0  0  0
   -0.0549   23.8683    9.4951 H   0  0  0  0  0  0  0  0  0  0  0  0
   -2.6643   23.3154   10.9950 H   0  0  0  0  0  0  0  0  0  0  0  0
   -1.3742   22.1268   10.6083 H   0  0  0  0  0  0  0  0  0  0  0  0
   -1.2434   22.9254   12.9699 H   0  0  0  0  0  0  0  0  0  0  0  0
    0.2221   23.3603   12.0266 H   0  0  0  0  0  0  0  0  0  0  0  0
   -2.1477   25.1942   12.6804 H   0  0  0  0  0  0  0  0  0  0  0  0
   -0.4976   25.2825   13.3847 H   0  0  0  0  0  0  0  0  0  0  0  0
    0.4575   25.8452   11.2064 H   0  0  0  0  0  0  0  0  0  0  0  0
   -0.8891   26.9759   11.5737 H   0  0  0  0  0  0  0  0  0  0  0  0
    5.2489   25.2365    5.0459 H   0  0  0  0  0  0  0  0  0  0  0  0
    5.1989   24.2194    7.3147 H   0  0  0  0  0  0  0  0  0  0  0  0
    2.7061   27.4407    8.6982 H   0  0  0  0  0  0  0  0  0  0  0  0
   -0.6153   30.5819    6.3556 H   0  0  0  0  0  0  0  0  0  0  0  0
    3.0515   29.3048    5.7110 H   0  0  0  0  0  0  0  0  0  0  0  0
    4.0232   27.3508    4.5981 H   0  0  0  0  0  0  0  0  0  0  0  0
    2.9290   25.6723   11.8504 H   0  0  0  0  0  0  0  0  0  0  0  0
    3.3582   27.1268   10.8878 H   0  0  0  0  0  0  0  0  0  0  0  0
    1.9025   26.1647   10.4611 H   0  0  0  0  0  0  0  0  0  0  0  0
  1 14  1  0  0  0  0
  1 21  2  0  0  0  0
  1 22  1  0  0  0  0
  2 18  1  0  0  0  0
  2 19  2  0  0  0  0
  3  4  1  0  0  0  0
  3 16  1  0  0  0  0
  4  5  1  0  0  0  0
  4  9  1  0  0  0  0
  5  6  1  0  0  0  0
  6  7  1  0  0  0  0
  7  8  1  0  0  0  0
  8  9  1  0  0  0  0
 10 11  2  0  0  0  0
 10 24  1  0  0  0  0
 11 12  1  0  0  0  0
 12 13  2  0  0  0  0
 12 25  1  0  0  0  0
 13 23  1  0  0  0  0
 14 15  2  0  0  0  0
 15 16  1  0  0  0  0
 15 17  1  0  0  0  0
 17 18  2  0  0  0  0
 17 20  1  0  0  0  0
 19 20  1  0  0  0  0
 20 21  1  0  0  0  0
 22 23  1  0  0  0  0
 23 24  2  0  0  0  0
 25 26  1  0  0  0  0
  2 27  1  0  0  0  0
  3 28  1  0  0  0  0
  3 29  1  0  0  0  0
  4 30  1  0  0  0  0
  5 31  1  0  0  0  0
  5 32  1  0  0  0  0
  6 33  1  0  0  0  0
  6 34  1  0  0  0  0
  7 35  1  0  0  0  0
  7 36  1  0  0  0  0
  8 37  1  0  0  0  0
  8 38  1  0  0  0  0
  9 39  1  0  0  0  0
  9 40  1  0  0  0  0
 10 41  1  0  0  0  0
 11 42  1  0  0  0  0
 13 43  1  0  0  0  0
 20 44  1  0  0  0  0
 22 45  1  0  0  0  0
 24 46  1  0  0  0  0
 26 47  1  0  0  0  0
 26 48  1  0  0  0  0
 26 49  1  0  0  0  0
M  END
> <r_user_dG.exp>
-7.862

$$$$
22
  -OEChem-05192314073D
 Structure written by MMmdl.
 49 52  0     1  0  0  0  0  0999 V2000
    1.3901   29.1077    6.7935 C   0  0  0  0  0  0  0  0  0  0  0  0
   -1.6911   31.9130    8.0794 C   0  0  0  0  0  0  0  0  0  0  0  0
   -0.7437   26.3748    8.8319 C   0  0  0  0  0  0  0  0  0  0  0  0
   -1.3142   25.5567    9.9914 C   0  0  0  0  0  0  0  0  0  0  0  0
   -1.1214   24.0589    9.6854 C   0  0  0  0  0  0  0  0  0  0  0  0
   -1.5824   23.1795   10.8502 C   0  0  0  0  0  0  0  0  0  0  0  0
   -0.8551   23.5463   12.1491 C   0  0  0  0  0  0  0  0  0  0  0  0
   -1.0780   25.0277   12.4857 C   0  0  0  0  0  0  0  0  0  0  0  0
   -0.6321   25.9351   11.3273 C   0  0  0  0  0  0  0  0  0  0  0  0
    4.6903   25.7129    5.8380 C   0  0  0  0  0  0  0  0  0  0  0  0
    4.6667   25.1395    7.1233 C   0  0  0  0  0  0  0  0  0  0  0  0
    3.9496   25.7658    8.1576 C   0  0  0  0  0  0  0  0  0  0  0  0
    3.2460   26.9556    7.8985 C   0  0  0  0  0  0  0  0  0  0  0  0
    0.6302   28.2313    7.4508 N   0  0  0  0  0  0  0  0  0  0  0  0
   -0.4898   28.6252    8.0923 C   0  0  0  0  0  0  0  0  0  0  0  0
   -1.1796   27.7315    8.8832 O   0  0  0  0  0  0  0  0  0  0  0  0
   -0.8660   29.9818    8.0000 C   0  0  0  0  0  0  0  0  0  0  0  0
   -1.9251   30.7129    8.5212 N   0  0  0  0  0  0  0  0  0  0  0  0
   -0.5542   32.0464    7.3306 N   0  0  0  0  0  0  0  0  0  0  0  0
   -0.0249   30.7863    7.2610 C   0  0  3  0  0  0  0  0  0  0  0  0
    1.1172   30.4049    6.6113 N   0  0  0  0  0  0  0  0  0  0  0  0
    2.5827   28.6807    6.3360 N   0  0  0  0  0  0  0  0  0  0  0  0
    3.2365   27.5251    6.6032 C   0  0  0  0  0  0  0  0  0  0  0  0
    3.9871   26.9068    5.5819 C   0  0  0  0  0  0  0  0  0  0  0  0
    3.9347   25.0874    9.7381 S   0  0  0  0  0  0  0  0  0  0  0  0
    2.9329   26.1133   10.8427 C   0  0  0  0  0  0  0  0  0  0  0  0
   -2.3473   32.7449    8.2886 H   0  0  0  0  0  0  0  0  0  0  0  0
    0.3548   26.3504    8.8841 H   0  0  0  0  0  0  0  0  0  0  0  0
   -1.0756   25.9287    7.8828 H   0  0  0  0  0  0  0  0  0  0  0  0
   -2.3913   25.7635   10.0760 H   0  0  0  0  0  0  0  0  0  0  0  0
   -1.7056   23.7998    8.7901 H   0  0  0  0  0  0  0  0  0  0  0  0
   -0.0549   23.8683    9.4951 H   0  0  0  0  0  0  0  0  0  0  0  0
   -2.6643   23.3154   10.9950 H   0  0  0  0  0  0  0  0  0  0  0  0
   -1.3742   22.1268   10.6083 H   0  0  0  0  0  0  0  0  0  0  0  0
   -1.2434   22.9254   12.9699 H   0  0  0  0  0  0  0  0  0  0  0  0
    0.2221   23.3603   12.0266 H   0  0  0  0  0  0  0  0  0  0  0  0
   -2.1477   25.1942   12.6804 H   0  0  0  0  0  0  0  0  0  0  0  0
   -0.4976   25.2825   13.3847 H   0  0  0  0  0  0  0  0  0  0  0  0
    0.4575   25.8452   11.2064 H   0  0  0  0  0  0  0  0  0  0  0  0
   -0.8891   26.9759   11.5737 H   0  0  0  0  0  0  0  0  0  0  0  0
    5.2489   25.2365    5.0459 H   0  0  0  0  0  0  0  0  0  0  0  0
    5.1989   24.2194    7.3147 H   0  0  0  0  0  0  0  0  0  0  0  0
    2.7061   27.4407    8.6982 H   0  0  0  0  0  0  0  0  0  0  0  0
   -0.6153   30.5819    6.3556 H   0  0  0  0  0  0  0  0  0  0  0  0
    1.6818   31.0231    6.0644 H   0  0  0  0  0  0  0  0  0  0  0  0
    4.0232   27.3508    4.5981 H   0  0  0  0  0  0  0  0  0  0  0  0
    2.9290   25.6723   11.8504 H   0  0  0  0  0  0  0  0  0  0  0  0
    3.3582   27.1268   10.8878 H   0  0  0  0  0  0  0  0  0  0  0  0
    1.9025   26.1647   10.4611 H   0  0  0  0  0  0  0  0  0  0  0  0
  1 14  1  0  0  0  0
  1 21  1  0  0  0  0
  1 22  2  0  0  0  0
  2 18  1  0  0  0  0
  2 19  2  0  0  0  0
  3  4  1  0  0  0  0
  3 16  1  0  0  0  0
  4  5  1  0  0  0  0
  4  9  1  0  0  0  0
  5  6  1  0  0  0  0
  6  7  1  0  0  0  0
  7  8  1  0  0  0  0
  8  9  1  0  0  0  0
 10 11  2  0  0  0  0
 10 24  1  0  0  0  0
 11 12  1  0  0  0  0
 12 13  2  0  0  0  0
 12 25  1  0  0  0  0
 13 23  1  0  0  0  0
 14 15  2  0  0  0  0
 15 16  1  0  0  0  0
 15 17  1  0  0  0  0
 17 18  2  0  0  0  0
 17 20  1  0  0  0  0
 19 20  1  0  0  0  0
 20 21  1  0  0  0  0
 22 23  1  0  0  0  0
 23 24  2  0  0  0  0
 25 26  1  0  0  0  0
  2 27  1  0  0  0  0
  3 28  1  0  0  0  0
  3 29  1  0  0  0  0
  4 30  1  0  0  0  0
  5 31  1  0  0  0  0
  5 32  1  0  0  0  0
  6 33  1  0  0  0  0
  6 34  1  0  0  0  0
  7 35  1  0  0  0  0
  7 36  1  0  0  0  0
  8 37  1  0  0  0  0
  8 38  1  0  0  0  0
  9 39  1  0  0  0  0
  9 40  1  0  0  0  0
 10 41  1  0  0  0  0
 11 42  1  0  0  0  0
 13 43  1  0  0  0  0
 20 44  1  0  0  0  0
 21 45  1  0  0  0  0
 24 46  1  0  0  0  0
 26 47  1  0  0  0  0
 26 48  1  0  0  0  0
 26 49  1  0  0  0  0
M  END
> <r_user_dG.exp>
-7.862

$$$$
22
  -OEChem-05192314073D
 Structure written by MMmdl.
 49 52  0     1  0  0  0  0  0999 V2000
    1.3901   29.1077    6.7935 C   0  0  3  0  0  0  0  0  0  0  0  0
   -1.6911   31.9130    8.0794 C   0  0  0  0  0  0  0  0  0  0  0  0
   -0.7437   26.3748    8.8319 C   0  0  0  0  0  0  0  0  0  0  0  0
   -1.3142   25.5567    9.9914 C   0  0  0  0  0  0  0  0  0  0  0  0
   -1.1214   24.0589    9.6854 C   0  0  0  0  0  0  0  0  0  0  0  0
   -1.5824   23.1795   10.8502 C   0  0  0  0  0  0  0  0  0  0  0  0
   -0.8551   23.5463   12.1491 C   0  0  0  0  0  0  0  0  0  0  0  0
   -1.0780   25.0277   12.4857 C   0  0  0  0  0  0  0  0  0  0  0  0
   -0.6321   25.9351   11.3273 C   0  0  0  0  0  0  0  0  0  0  0  0
    4.6903   25.7129    5.8380 C   0  0  0  0  0  0  0  0  0  0  0  0
    4.6667   25.1395    7.1233 C   0  0  0  0  0  0  0  0  0  0  0  0
    3.9496   25.7658    8.1576 C   0  0  0  0  0  0  0  0  0  0  0  0
    3.2460   26.9556    7.8985 C   0  0  0  0  0  0  0  0  0  0  0  0
    0.6302   28.2313    7.4508 N   0  0  0  0  0  0  0  0  0  0  0  0
   -0.4898   28.6252    8.0923 C   0  0  0  0  0  0  0  0  0  0  0  0
   -1.1796   27.7315    8.8832 O   0  0  0  0  0  0  0  0  0  0  0  0
   -0.8660   29.9818    8.0000 C   0  0  0  0  0  0  0  0  0  0  0  0
   -1.9251   30.7129    8.5212 N   0  0  0  0  0  0  0  0  0  0  0  0
   -0.5542   32.0464    7.3306 N   0  0  0  0  0  0  0  0  0  0  0  0
   -0.0249   30.7863    7.2610 C   0  0  0  0  0  0  0  0  0  0  0  0
    1.1172   30.4049    6.6113 N   0  0  0  0  0  0  0  0  0  0  0  0
    2.5827   28.6807    6.3360 N   0  0  0  0  0  0  0  0  0  0  0  0
    3.2365   27.5251    6.6032 C   0  0  0  0  0  0  0  0  0  0  0  0
    3.9871   26.9068    5.5819 C   0  0  0  0  0  0  0  0  0  0  0  0
    3.9347   25.0874    9.7381 S   0  0  0  0  0  0  0  0  0  0  0  0
    2.9329   26.1133   10.8427 C   0  0  0  0  0  0  0  0  0  0  0  0
    0.9058   28.8482    5.8406 H   0  0  0  0  0  0  0  0  0  0  0  0
   -2.3473   32.7449    8.2886 H   0  0  0  0  0  0  0  0  0  0  0  0
    0.3548   26.3504    8.8841 H   0  0  0  0  0  0  0  0  0  0  0  0
   -1.0756   25.9287    7.8828 H   0  0  0  0  0  0  0  0  0  0  0  0
   -2.3913   25.7635   10.0760 H   0  0  0  0  0  0  0  0  0  0  0  0
   -1.7056   23.7998    8.7901 H   0  0  0  0  0  0  0  0  0  0  0  0
   -0.0549   23.8683    9.4951 H   0  0  0  0  0  0  0  0  0  0  0  0
   -2.6643   23.3154   10.9950 H   0  0  0  0  0  0  0  0  0  0  0  0
   -1.3742   22.1268   10.6083 H   0  0  0  0  0  0  0  0  0  0  0  0
   -1.2434   22.9254   12.9699 H   0  0  0  0  0  0  0  0  0  0  0  0
    0.2221   23.3603   12.0266 H   0  0  0  0  0  0  0  0  0  0  0  0
   -2.1477   25.1942   12.6804 H   0  0  0  0  0  0  0  0  0  0  0  0
   -0.4976   25.2825   13.3847 H   0  0  0  0  0  0  0  0  0  0  0  0
    0.4575   25.8452   11.2064 H   0  0  0  0  0  0  0  0  0  0  0  0
   -0.8891   26.9759   11.5737 H   0  0  0  0  0  0  0  0  0  0  0  0
    5.2489   25.2365    5.0459 H   0  0  0  0  0  0  0  0  0  0  0  0
    5.1989   24.2194    7.3147 H   0  0  0  0  0  0  0  0  0  0  0  0
    2.7061   27.4407    8.6982 H   0  0  0  0  0  0  0  0  0  0  0  0
    2.4825   28.6846    5.3410 H   0  0  0  0  0  0  0  0  0  0  0  0
    4.0232   27.3508    4.5981 H   0  0  0  0  0  0  0  0  0  0  0  0
    2.9290   25.6723   11.8504 H   0  0  0  0  0  0  0  0  0  0  0  0
    3.3582   27.1268   10.8878 H   0  0  0  0  0  0  0  0  0  0  0  0
    1.9025   26.1647   10.4611 H   0  0  0  0  0  0  0  0  0  0  0  0
  1 14  1  0  0  0  0
  1 21  1  0  0  0  0
  1 22  1  0  0  0  0
  2 18  1  0  0  0  0
  2 19  2  0  0  0  0
  3  4  1  0  0  0  0
  3 16  1  0  0  0  0
  4  5  1  0  0  0  0
  4  9  1  0  0  0  0
  5  6  1  0  0  0  0
  6  7  1  0  0  0  0
  7  8  1  0  0  0  0
  8  9  1  0  0  0  0
 10 11  2  0  0  0  0
 10 24  1  0  0  0  0
 11 12  1  0  0  0  0
 12 13  2  0  0  0  0
 12 25  1  0  0  0  0
 13 23  1  0  0  0  0
 14 15  2  0  0  0  0
 15 16  1  0  0  0  0
 15 17  1  0  0  0  0
 17 18  2  0  0  0  0
 17 20  1  0  0  0  0
 19 20  1  0  0  0  0
 20 21  2  0  0  0  0
 22 23  1  0  0  0  0
 23 24  2  0  0  0  0
 25 26  1  0  0  0  0
  1 27  1  0  0  0  0
  2 28  1  0  0  0  0
  3 29  1  0  0  0  0
  3 30  1  0  0  0  0
  4 31  1  0  0  0  0
  5 32  1  0  0  0  0
  5 33  1  0  0  0  0
  6 34  1  0  0  0  0
  6 35  1  0  0  0  0
  7 36  1  0  0  0  0
  7 37  1  0  0  0  0
  8 38  1  0  0  0  0
  8 39  1  0  0  0  0
  9 40  1  0  0  0  0
  9 41  1  0  0  0  0
 10 42  1  0  0  0  0
 11 43  1  0  0  0  0
 13 44  1  0  0  0  0
 22 45  1  0  0  0  0
 24 46  1  0  0  0  0
 26 47  1  0  0  0  0
 26 48  1  0  0  0  0
 26 49  1  0  0  0  0
M  END
> <r_user_dG.exp>
-7.862

$$$$
22
  -OEChem-05192314073D
 Structure written by MMmdl.
 49 52  0     1  0  0  0  0  0999 V2000
    1.3901   29.1077    6.7935 C   0  0  0  0  0  0  0  0  0  0  0  0
   -1.6911   31.9130    8.0794 C   0  0  0  0  0  0  0  0  0  0  0  0
   -0.7437   26.3748    8.8319 C   0  0  0  0  0  0  0  0  0  0  0  0
   -1.3142   25.5567    9.9914 C   0  0  0  0  0  0  0  0  0  0  0  0
   -1.1214   24.0589    9.6854 C   0  0  0  0  0  0  0  0  0  0  0  0
   -1.5824   23.1795   10.8502 C   0  0  0  0  0  0  0  0  0  0  0  0
   -0.8551   23.5463   12.1491 C   0  0  0  0  0  0  0  0  0  0  0  0
   -1.0780   25.0277   12.4857 C   0  0  0  0  0  0  0  0  0  0  0  0
   -0.6321   25.9351   11.3273 C   0  0  0  0  0  0  0  0  0  0  0  0
    4.6903   25.7129    5.8380 C   0  0  0  0  0  0  0  0  0  0  0  0
    4.6667   25.1395    7.1233 C   0  0  0  0  0  0  0  0  0  0  0  0
    3.9496   25.7658    8.1576 C   0  0  0  0  0  0  0  0  0  0  0  0
    3.2460   26.9556    7.8985 C   0  0  0  0  0  0  0  0  0  0  0  0
    0.6302   28.2313    7.4508 N   0  0  0  0  0  0  0  0  0  0  0  0
   -0.4898   28.6252    8.0923 C   0  0  3  0  0  0  0  0  0  0  0  0
   -1.1796   27.7315    8.8832 O   0  0  0  0  0  0  0  0  0  0  0  0
   -0.8660   29.9818    8.0000 C   0  0  0  0  0  0  0  0  0  0  0  0
   -1.9251   30.7129    8.5212 N   0  0  0  0  0  0  0  0  0  0  0  0
   -0.5542   32.0464    7.3306 N   0  0  0  0  0  0  0  0  0  0  0  0
   -0.0249   30.7863    7.2610 C   0  0  0  0  0  0  0  0  0  0  0  0
    1.1172   30.4049    6.6113 N   0  0  0  0  0  0  0  0  0  0  0  0
    2.5827   28.6807    6.3360 N   0  0  0  0  0  0  0  0  0  0  0  0
    3.2365   27.5251    6.6032 C   0  0  0  0  0  0  0  0  0  0  0  0
    3.9871   26.9068    5.5819 C   0  0  0  0  0  0  0  0  0  0  0  0
    3.9347   25.0874    9.7381 S   0  0  0  0  0  0  0  0  0  0  0  0
    2.9329   26.1133   10.8427 C   0  0  0  0  0  0  0  0  0  0  0  0
   -2.3473   32.7449    8.2886 H   0  0  0  0  0  0  0  0  0  0  0  0
    0.3548   26.3504    8.8841 H   0  0  0  0  0  0  0  0  0  0  0  0
   -1.0756   25.9287    7.8828 H   0  0  0  0  0  0  0  0  0  0  0  0
   -2.3913   25.7635   10.0760 H   0  0  0  0  0  0  0  0  0  0  0  0
   -1.7056   23.7998    8.7901 H   0  0  0  0  0  0  0  0  0  0  0  0
   -0.0549   23.8683    9.4951 H   0  0  0  0  0  0  0  0  0  0  0  0
   -2.6643   23.3154   10.9950 H   0  0  0  0  0  0  0  0  0  0  0  0
   -1.3742   22.1268   10.6083 H   0  0  0  0  0  0  0  0  0  0  0  0
   -1.2434   22.9254   12.9699 H   0  0  0  0  0  0  0  0  0  0  0  0
    0.2221   23.3603   12.0266 H   0  0  0  0  0  0  0  0  0  0  0  0
   -2.1477   25.1942   12.6804 H   0  0  0  0  0  0  0  0  0  0  0  0
   -0.4976   25.2825   13.3847 H   0  0  0  0  0  0  0  0  0  0  0  0
    0.4575   25.8452   11.2064 H   0  0  0  0  0  0  0  0  0  0  0  0
   -0.8891   26.9759   11.5737 H   0  0  0  0  0  0  0  0  0  0  0  0
    5.2489   25.2365    5.0459 H   0  0  0  0  0  0  0  0  0  0  0  0
    5.1989   24.2194    7.3147 H   0  0  0  0  0  0  0  0  0  0  0  0
    2.7061   27.4407    8.6982 H   0  0  0  0  0  0  0  0  0  0  0  0
   -1.1094   28.3692    7.2202 H   0  0  0  0  0  0  0  0  0  0  0  0
    3.0515   29.3048    5.7110 H   0  0  0  0  0  0  0  0  0  0  0  0
    4.0232   27.3508    4.5981 H   0  0  0  0  0  0  0  0  0  0  0  0
    2.9290   25.6723   11.8504 H   0  0  0  0  0  0  0  0  0  0  0  0
    3.3582   27.1268   10.8878 H   0  0  0  0  0  0  0  0  0  0  0  0
    1.9025   26.1647   10.4611 H   0  0  0  0  0  0  0  0  0  0  0  0
  1 14  2  0  0  0  0
  1 21  1  0  0  0  0
  1 22  1  0  0  0  0
  2 18  1  0  0  0  0
  2 19  2  0  0  0  0
  3  4  1  0  0  0  0
  3 16  1  0  0  0  0
  4  5  1  0  0  0  0
  4  9  1  0  0  0  0
  5  6  1  0  0  0  0
  6  7  1  0  0  0  0
  7  8  1  0  0  0  0
  8  9  1  0  0  0  0
 10 11  2  0  0  0  0
 10 24  1  0  0  0  0
 11 12  1  0  0  0  0
 12 13  2  0  0  0  0
 12 25  1  0  0  0  0
 13 23  1  0  0  0  0
 14 15  1  0  0  0  0
 15 16  1  0  0  0  0
 15 17  1  0  0  0  0
 17 18  2  0  0  0  0
 17 20  1  0  0  0  0
 19 20  1  0  0  0  0
 20 21  2  0  0  0  0
 22 23  1  0  0  0  0
 23 24  2  0  0  0  0
 25 26  1  0  0  0  0
  2 27  1  0  0  0  0
  3 28  1  0  0  0  0
  3 29  1  0  0  0  0
  4 30  1  0  0  0  0
  5 31  1  0  0  0  0
  5 32  1  0  0  0  0
  6 33  1  0  0  0  0
  6 34  1  0  0  0  0
  7 35  1  0  0  0  0
  7 36  1  0  0  0  0
  8 37  1  0  0  0  0
  8 38  1  0  0  0  0
  9 39  1  0  0  0  0
  9 40  1  0  0  0  0
 10 41  1  0  0  0  0
 11 42  1  0  0  0  0
 13 43  1  0  0  0  0
 15 44  1  0  0  0  0
 22 45  1  0  0  0  0
 24 46  1  0  0  0  0
 26 47  1  0  0  0  0
 26 48  1  0  0  0  0
 26 49  1  0  0  0  0
M  END
> <r_user_dG.exp>
-7.862

$$$$
22
  -OEChem-05192314073D
 Structure written by MMmdl.
 49 52  0     1  0  0  0  0  0999 V2000
    1.3901   29.1077    6.7935 C   0  0  0  0  0  0  0  0  0  0  0  0
   -1.6911   31.9130    8.0794 C   0  0  0  0  0  0  0  0  0  0  0  0
   -0.7437   26.3748    8.8319 C   0  0  0  0  0  0  0  0  0  0  0  0
   -1.3142   25.5567    9.9914 C   0  0  0  0  0  0  0  0  0  0  0  0
   -1.1214   24.0589    9.6854 C   0  0  0  0  0  0  0  0  0  0  0  0
   -1.5824   23.1795   10.8502 C   0  0  0  0  0  0  0  0  0  0  0  0
   -0.8551   23.5463   12.1491 C   0  0  0  0  0  0  0  0  0  0  0  0
   -1.0780   25.0277   12.4857 C   0  0  0  0  0  0  0  0  0  0  0  0
   -0.6321   25.9351   11.3273 C   0  0  0  0  0  0  0  0  0  0  0  0
    4.6903   25.7129    5.8380 C   0  0  0  0  0  0  0  0  0  0  0  0
    4.6667   25.1395    7.1233 C   0  0  0  0  0  0  0  0  0  0  0  0
    3.9496   25.7658    8.1576 C   0  0  0  0  0  0  0  0  0  0  0  0
    3.2460   26.9556    7.8985 C   0  0  0  0  0  0  0  0  0  0  0  0
    0.6302   28.2313    7.4508 N   0  0  0  0  0  0  0  0  0  0  0  0
   -0.4898   28.6252    8.0923 C   0  0  3  0  0  0  0  0  0  0  0  0
   -1.1796   27.7315    8.8832 O   0  0  0  0  0  0  0  0  0  0  0  0
   -0.8660   29.9818    8.0000 C   0  0  0  0  0  0  0  0  0  0  0  0
   -1.9251   30.7129    8.5212 N   0  0  0  0  0  0  0  0  0  0  0  0
   -0.5542   32.0464    7.3306 N   0  0  0  0  0  0  0  0  0  0  0  0
   -0.0249   30.7863    7.2610 C   0  0  0  0  0  0  0  0  0  0  0  0
    1.1172   30.4049    6.6113 N   0  0  0  0  0  0  0  0  0  0  0  0
    2.5827   28.6807    6.3360 N   0  0  0  0  0  0  0  0  0  0  0  0
    3.2365   27.5251    6.6032 C   0  0  0  0  0  0  0  0  0  0  0  0
    3.9871   26.9068    5.5819 C   0  0  0  0  0  0  0  0  0  0  0  0
    3.9347   25.0874    9.7381 S   0  0  0  0  0  0  0  0  0  0  0  0
    2.9329   26.1133   10.8427 C   0  0  0  0  0  0  0  0  0  0  0  0
   -2.3473   32.7449    8.2886 H   0  0  0  0  0  0  0  0  0  0  0  0
    0.3548   26.3504    8.8841 H   0  0  0  0  0  0  0  0  0  0  0  0
   -1.0756   25.9287    7.8828 H   0  0  0  0  0  0  0  0  0  0  0  0
   -2.3913   25.7635   10.0760 H   0  0  0  0  0  0  0  0  0  0  0  0
   -1.7056   23.7998    8.7901 H   0  0  0  0  0  0  0  0  0  0  0  0
   -0.0549   23.8683    9.4951 H   0  0  0  0  0  0  0  0  0  0  0  0
   -2.6643   23.3154   10.9950 H   0  0  0  0  0  0  0  0  0  0  0  0
   -1.3742   22.1268   10.6083 H   0  0  0  0  0  0  0  0  0  0  0  0
   -1.2434   22.9254   12.9699 H   0  0  0  0  0  0  0  0  0  0  0  0
    0.2221   23.3603   12.0266 H   0  0  0  0  0  0  0  0  0  0  0  0
   -2.1477   25.1942   12.6804 H   0  0  0  0  0  0  0  0  0  0  0  0
   -0.4976   25.2825   13.3847 H   0  0  0  0  0  0  0  0  0  0  0  0
    0.4575   25.8452   11.2064 H   0  0  0  0  0  0  0  0  0  0  0  0
   -0.8891   26.9759   11.5737 H   0  0  0  0  0  0  0  0  0  0  0  0
    5.2489   25.2365    5.0459 H   0  0  0  0  0  0  0  0  0  0  0  0
    5.1989   24.2194    7.3147 H   0  0  0  0  0  0  0  0  0  0  0  0
    2.7061   27.4407    8.6982 H   0  0  0  0  0  0  0  0  0  0  0  0
    0.8943   27.2670    7.4687 H   0  0  0  0  0  0  0  0  0  0  0  0
   -1.1094   28.3692    7.2202 H   0  0  0  0  0  0  0  0  0  0  0  0
    4.0232   27.3508    4.5981 H   0  0  0  0  0  0  0  0  0  0  0  0
    2.9290   25.6723   11.8504 H   0  0  0  0  0  0  0  0  0  0  0  0
    3.3582   27.1268   10.8878 H   0  0  0  0  0  0  0  0  0  0  0  0
    1.9025   26.1647   10.4611 H   0  0  0  0  0  0  0  0  0  0  0  0
  1 14  1  0  0  0  0
  1 21  1  0  0  0  0
  1 22  2  0  0  0  0
  2 18  1  0  0  0  0
  2 19  2  0  0  0  0
  3  4  1  0  0  0  0
  3 16  1  0  0  0  0
  4  5  1  0  0  0  0
  4  9  1  0  0  0  0
  5  6  1  0  0  0  0
  6  7  1  0  0  0  0
  7  8  1  0  0  0  0
  8  9  1  0  0  0  0
 10 11  2  0  0  0  0
 10 24  1  0  0  0  0
 11 12  1  0  0  0  0
 12 13  2  0  0  0  0
 12 25  1  0  0  0  0
 13 23  1  0  0  0  0
 14 15  1  0  0  0  0
 15 16  1  0  0  0  0
 15 17  1  0  0  0  0
 17 18  2  0  0  0  0
 17 20  1  0  0  0  0
 19 20  1  0  0  0  0
 20 21  2  0  0  0  0
 22 23  1  0  0  0  0
 23 24  2  0  0  0  0
 25 26  1  0  0  0  0
  2 27  1  0  0  0  0
  3 28  1  0  0  0  0
  3 29  1  0  0  0  0
  4 30  1  0  0  0  0
  5 31  1  0  0  0  0
  5 32  1  0  0  0  0
  6 33  1  0  0  0  0
  6 34  1  0  0  0  0
  7 35  1  0  0  0  0
  7 36  1  0  0  0  0
  8 37  1  0  0  0  0
  8 38  1  0  0  0  0
  9 39  1  0  0  0  0
  9 40  1  0  0  0  0
 10 41  1  0  0  0  0
 11 42  1  0  0  0  0
 13 43  1  0  0  0  0
 14 44  1  0  0  0  0
 15 45  1  0  0  0  0
 24 46  1  0  0  0  0
 26 47  1  0  0  0  0
 26 48  1  0  0  0  0
 26 49  1  0  0  0  0
M  END
> <r_user_dG.exp>
-7.862

$$$$
22
  -OEChem-05192314073D
 Structure written by MMmdl.
 49 52  0     0  0  0  0  0  0999 V2000
    1.3901   29.1077    6.7935 C   0  0  0  0  0  0  0  0  0  0  0  0
   -1.6911   31.9130    8.0794 C   0  0  0  0  0  0  0  0  0  0  0  0
   -0.7437   26.3748    8.8319 C   0  0  0  0  0  0  0  0  0  0  0  0
   -1.3142   25.5567    9.9914 C   0  0  0  0  0  0  0  0  0  0  0  0
   -1.1214   24.0589    9.6854 C   0  0  0  0  0  0  0  0  0  0  0  0
   -1.5824   23.1795   10.8502 C   0  0  0  0  0  0  0  0  0  0  0  0
   -0.8551   23.5463   12.1491 C   0  0  0  0  0  0  0  0  0  0  0  0
   -1.0780   25.0277   12.4857 C   0  0  0  0  0  0  0  0  0  0  0  0
   -0.6321   25.9351   11.3273 C   0  0  0  0  0  0  0  0  0  0  0  0
    4.6903   25.7129    5.8380 C   0  0  0  0  0  0  0  0  0  0  0  0
    4.6667   25.1395    7.1233 C   0  0  0  0  0  0  0  0  0  0  0  0
    3.9496   25.7658    8.1576 C   0  0  0  0  0  0  0  0  0  0  0  0
    3.2460   26.9556    7.8985 C   0  0  0  0  0  0  0  0  0  0  0  0
    0.6302   28.2313    7.4508 N   0  0  0  0  0  0  0  0  0  0  0  0
   -0.4898   28.6252    8.0923 C   0  0  0  0  0  0  0  0  0  0  0  0
   -1.1796   27.7315    8.8832 O   0  0  0  0  0  0  0  0  0  0  0  0
   -0.8660   29.9818    8.0000 C   0  0  0  0  0  0  0  0  0  0  0  0
   -1.9251   30.7129    8.5212 N   0  0  0  0  0  0  0  0  0  0  0  0
   -0.5542   32.0464    7.3306 N   0  0  0  0  0  0  0  0  0  0  0  0
   -0.0249   30.7863    7.2610 C   0  0  0  0  0  0  0  0  0  0  0  0
    1.1172   30.4049    6.6113 N   0  0  0  0  0  0  0  0  0  0  0  0
    2.5827   28.6807    6.3360 N   0  0  0  0  0  0  0  0  0  0  0  0
    3.2365   27.5251    6.6032 C   0  0  0  0  0  0  0  0  0  0  0  0
    3.9871   26.9068    5.5819 C   0  0  0  0  0  0  0  0  0  0  0  0
    3.9347   25.0874    9.7381 S   0  0  0  0  0  0  0  0  0  0  0  0
    2.9329   26.1133   10.8427 C   0  0  0  0  0  0  0  0  0  0  0  0
   -2.5456   32.2197    7.4583 H   0  0  0  0  0  0  0  0  0  0  0  0
   -1.6083   32.5848    8.9465 H   0  0  0  0  0  0  0  0  0  0  0  0
    0.3548   26.3504    8.8841 H   0  0  0  0  0  0  0  0  0  0  0  0
   -1.0756   25.9287    7.8828 H   0  0  0  0  0  0  0  0  0  0  0  0
   -2.3913   25.7635   10.0760 H   0  0  0  0  0  0  0  0  0  0  0  0
   -1.7056   23.7998    8.7901 H   0  0  0  0  0  0  0  0  0  0  0  0
   -0.0549   23.8683    9.4951 H   0  0  0  0  0  0  0  0  0  0  0  0
   -2.6643   23.3154   10.9950 H   0  0  0  0  0  0  0  0  0  0  0  0
   -1.3742   22.1268   10.6083 H   0  0  0  0  0  0  0  0  0  0  0  0
   -1.2434   22.9254   12.9699 H   0  0  0  0  0  0  0  0  0  0  0  0
    0.2221   23.3603   12.0266 H   0  0  0  0  0  0  0  0  0  0  0  0
   -2.1477   25.1942   12.6804 H   0  0  0  0  0  0  0  0  0  0  0  0
   -0.4976   25.2825   13.3847 H   0  0  0  0  0  0  0  0  0  0  0  0
    0.4575   25.8452   11.2064 H   0  0  0  0  0  0  0  0  0  0  0  0
   -0.8891   26.9759   11.5737 H   0  0  0  0  0  0  0  0  0  0  0  0
    5.2489   25.2365    5.0459 H   0  0  0  0  0  0  0  0  0  0  0  0
    5.1989   24.2194    7.3147 H   0  0  0  0  0  0  0  0  0  0  0  0
    2.7061   27.4407    8.6982 H   0  0  0  0  0  0  0  0  0  0  0  0
   -0.1890   32.8832    6.9226 H   0  0  0  0  0  0  0  0  0  0  0  0
    4.0232   27.3508    4.5981 H   0  0  0  0  0  0  0  0  0  0  0  0
    2.9290   25.6723   11.8504 H   0  0  0  0  0  0  0  0  0  0  0  0
    3.3582   27.1268   10.8878 H   0  0  0  0  0  0  0  0  0  0  0  0
    1.9025   26.1647   10.4611 H   0  0  0  0  0  0  0  0  0  0  0  0
  1 14  1  0  0  0  0
  1 21  1  0  0  0  0
  1 22  2  0  0  0  0
  2 18  1  0  0  0  0
  2 19  1  0  0  0  0
  3  4  1  0  0  0  0
  3 16  1  0  0  0  0
  4  5  1  0  0  0  0
  4  9  1  0  0  0  0
  5  6  1  0  0  0  0
  6  7  1  0  0  0  0
  7  8  1  0  0  0  0
  8  9  1  0  0  0  0
 10 11  2  0  0  0  0
 10 24  1  0  0  0  0
 11 12  1  0  0  0  0
 12 13  2  0  0  0  0
 12 25  1  0  0  0  0
 13 23  1  0  0  0  0
 14 15  2  0  0  0  0
 15 16  1  0  0  0  0
 15 17  1  0  0  0  0
 17 18  2  0  0  0  0
 17 20  1  0  0  0  0
 19 20  1  0  0  0  0
 20 21  2  0  0  0  0
 22 23  1  0  0  0  0
 23 24  2  0  0  0  0
 25 26  1  0  0  0  0
  2 27  1  0  0  0  0
  2 28  1  0  0  0  0
  3 29  1  0  0  0  0
  3 30  1  0  0  0  0
  4 31  1  0  0  0  0
  5 32  1  0  0  0  0
  5 33  1  0  0  0  0
  6 34  1  0  0  0  0
  6 35  1  0  0  0  0
  7 36  1  0  0  0  0
  7 37  1  0  0  0  0
  8 38  1  0  0  0  0
  8 39  1  0  0  0  0
  9 40  1  0  0  0  0
  9 41  1  0  0  0  0
 10 42  1  0  0  0  0
 11 43  1  0  0  0  0
 13 44  1  0  0  0  0
 19 45  1  0  0  0  0
 24 46  1  0  0  0  0
 26 47  1  0  0  0  0
 26 48  1  0  0  0  0
 26 49  1  0  0  0  0
M  END
> <r_user_dG.exp>
-7.862

$$$$
22
  -OEChem-05192314073D
 Structure written by MMmdl.
 49 52  0     0  0  0  0  0  0999 V2000
    1.3901   29.1077    6.7935 C   0  0  0  0  0  0  0  0  0  0  0  0
   -1.6911   31.9130    8.0794 C   0  0  0  0  0  0  0  0  0  0  0  0
   -0.7437   26.3748    8.8319 C   0  0  0  0  0  0  0  0  0  0  0  0
   -1.3142   25.5567    9.9914 C   0  0  0  0  0  0  0  0  0  0  0  0
   -1.1214   24.0589    9.6854 C   0  0  0  0  0  0  0  0  0  0  0  0
   -1.5824   23.1795   10.8502 C   0  0  0  0  0  0  0  0  0  0  0  0
   -0.8551   23.5463   12.1491 C   0  0  0  0  0  0  0  0  0  0  0  0
   -1.0780   25.0277   12.4857 C   0  0  0  0  0  0  0  0  0  0  0  0
   -0.6321   25.9351   11.3273 C   0  0  0  0  0  0  0  0  0  0  0  0
    4.6903   25.7129    5.8380 C   0  0  0  0  0  0  0  0  0  0  0  0
    4.6667   25.1395    7.1233 C   0  0  0  0  0  0  0  0  0  0  0  0
    3.9496   25.7658    8.1576 C   0  0  0  0  0  0  0  0  0  0  0  0
    3.2460   26.9556    7.8985 C   0  0  0  0  0  0  0  0  0  0  0  0
    0.6302   28.2313    7.4508 N   0  0  0  0  0  0  0  0  0  0  0  0
   -0.4898   28.6252    8.0923 C   0  0  0  0  0  0  0  0  0  0  0  0
   -1.1796   27.7315    8.8832 O   0  0  0  0  0  0  0  0  0  0  0  0
   -0.8660   29.9818    8.0000 C   0  0  0  0  0  0  0  0  0  0  0  0
   -1.9251   30.7129    8.5212 N   0  0  0  0  0  0  0  0  0  0  0  0
   -0.5542   32.0464    7.3306 N   0  0  0  0  0  0  0  0  0  0  0  0
   -0.0249   30.7863    7.2610 C   0  0  0  0  0  0  0  0  0  0  0  0
    1.1172   30.4049    6.6113 N   0  0  0  0  0  0  0  0  0  0  0  0
    2.5827   28.6807    6.3360 N   0  0  0  0  0  0  0  0  0  0  0  0
    3.2365   27.5251    6.6032 C   0  0  0  0  0  0  0  0  0  0  0  0
    3.9871   26.9068    5.5819 C   0  0  0  0  0  0  0  0  0  0  0  0
    3.9347   25.0874    9.7381 S   0  0  0  0  0  0  0  0  0  0  0  0
    2.9329   26.1133   10.8427 C   0  0  0  0  0  0  0  0  0  0  0  0
   -2.5456   32.2197    7.4583 H   0  0  0  0  0  0  0  0  0  0  0  0
   -1.6083   32.5848    8.9465 H   0  0  0  0  0  0  0  0  0  0  0  0
    0.3548   26.3504    8.8841 H   0  0  0  0  0  0  0  0  0  0  0  0
   -1.0756   25.9287    7.8828 H   0  0  0  0  0  0  0  0  0  0  0  0
   -2.3913   25.7635   10.0760 H   0  0  0  0  0  0  0  0  0  0  0  0
   -1.7056   23.7998    8.7901 H   0  0  0  0  0  0  0  0  0  0  0  0
   -0.0549   23.8683    9.4951 H   0  0  0  0  0  0  0  0  0  0  0  0
   -2.6643   23.3154   10.9950 H   0  0  0  0  0  0  0  0  0  0  0  0
   -1.3742   22.1268   10.6083 H   0  0  0  0  0  0  0  0  0  0  0  0
   -1.2434   22.9254   12.9699 H   0  0  0  0  0  0  0  0  0  0  0  0
    0.2221   23.3603   12.0266 H   0  0  0  0  0  0  0  0  0  0  0  0
   -2.1477   25.1942   12.6804 H   0  0  0  0  0  0  0  0  0  0  0  0
   -0.4976   25.2825   13.3847 H   0  0  0  0  0  0  0  0  0  0  0  0
    0.4575   25.8452   11.2064 H   0  0  0  0  0  0  0  0  0  0  0  0
   -0.8891   26.9759   11.5737 H   0  0  0  0  0  0  0  0  0  0  0  0
    5.2489   25.2365    5.0459 H   0  0  0  0  0  0  0  0  0  0  0  0
    4.2475   24.1285    7.0127 H   0  0  0  0  0  0  0  0  0  0  0  0
    5.7118   25.0684    7.4589 H   0  0  0  0  0  0  0  0  0  0  0  0
    2.7061   27.4407    8.6982 H   0  0  0  0  0  0  0  0  0  0  0  0
    4.0232   27.3508    4.5981 H   0  0  0  0  0  0  0  0  0  0  0  0
    2.9290   25.6723   11.8504 H   0  0  0  0  0  0  0  0  0  0  0  0
    3.3582   27.1268   10.8878 H   0  0  0  0  0  0  0  0  0  0  0  0
    1.9025   26.1647   10.4611 H   0  0  0  0  0  0  0  0  0  0  0  0
  1 14  1  0  0  0  0
  1 21  2  0  0  0  0
  1 22  1  0  0  0  0
  2 18  1  0  0  0  0
  2 19  1  0  0  0  0
  3  4  1  0  0  0  0
  3 16  1  0  0  0  0
  4  5  1  0  0  0  0
  4  9  1  0  0  0  0
  5  6  1  0  0  0  0
  6  7  1  0  0  0  0
  7  8  1  0  0  0  0
  8  9  1  0  0  0  0
 10 11  1  0  0  0  0
 10 24  2  0  0  0  0
 11 12  1  0  0  0  0
 12 13  2  0  0  0  0
 12 25  1  0  0  0  0
 13 23  1  0  0  0  0
 14 15  2  0  0  0  0
 15 16  1  0  0  0  0
 15 17  1  0  0  0  0
 17 18  2  0  0  0  0
 17 20  1  0  0  0  0
 19 20  2  0  0  0  0
 20 21  1  0  0  0  0
 22 23  2  3  0  0  0
 23 24  1  0  0  0  0
 25 26  1  0  0  0  0
  2 27  1  0  0  0  0
  2 28  1  0  0  0  0
  3 29  1  0  0  0  0
  3 30  1  0  0  0  0
  4 31  1  0  0  0  0
  5 32  1  0  0  0  0
  5 33  1  0  0  0  0
  6 34  1  0  0  0  0
  6 35  1  0  0  0  0
  7 36  1  0  0  0  0
  7 37  1  0  0  0  0
  8 38  1  0  0  0  0
  8 39  1  0  0  0  0
  9 40  1  0  0  0  0
  9 41  1  0  0  0  0
 10 42  1  0  0  0  0
 11 43  1  0  0  0  0
 11 44  1  0  0  0  0
 13 45  1  0  0  0  0
 24 46  1  0  0  0  0
 26 47  1  0  0  0  0
 26 48  1  0  0  0  0
 26 49  1  0  0  0  0
M  END
> <r_user_dG.exp>
-7.862

$$$$
22
  -OEChem-05192314073D
 Structure written by MMmdl.
 49 52  0     0  0  0  0  0  0999 V2000
    1.3901   29.1077    6.7935 C   0  0  0  0  0  0  0  0  0  0  0  0
   -1.6911   31.9130    8.0794 C   0  0  0  0  0  0  0  0  0  0  0  0
   -0.7437   26.3748    8.8319 C   0  0  0  0  0  0  0  0  0  0  0  0
   -1.3142   25.5567    9.9914 C   0  0  0  0  0  0  0  0  0  0  0  0
   -1.1214   24.0589    9.6854 C   0  0  0  0  0  0  0  0  0  0  0  0
   -1.5824   23.1795   10.8502 C   0  0  0  0  0  0  0  0  0  0  0  0
   -0.8551   23.5463   12.1491 C   0  0  0  0  0  0  0  0  0  0  0  0
   -1.0780   25.0277   12.4857 C   0  0  0  0  0  0  0  0  0  0  0  0
   -0.6321   25.9351   11.3273 C   0  0  0  0  0  0  0  0  0  0  0  0
    4.6903   25.7129    5.8380 C   0  0  0  0  0  0  0  0  0  0  0  0
    4.6667   25.1395    7.1233 C   0  0  0  0  0  0  0  0  0  0  0  0
    3.9496   25.7658    8.1576 C   0  0  0  0  0  0  0  0  0  0  0  0
    3.2460   26.9556    7.8985 C   0  0  0  0  0  0  0  0  0  0  0  0
    0.6302   28.2313    7.4508 N   0  0  0  0  0  0  0  0  0  0  0  0
   -0.4898   28.6252    8.0923 C   0  0  0  0  0  0  0  0  0  0  0  0
   -1.1796   27.7315    8.8832 O   0  0  0  0  0  0  0  0  0  0  0  0
   -0.8660   29.9818    8.0000 C   0  0  0  0  0  0  0  0  0  0  0  0
   -1.9251   30.7129    8.5212 N   0  0  0  0  0  0  0  0  0  0  0  0
   -0.5542   32.0464    7.3306 N   0  0  0  0  0  0  0  0  0  0  0  0
   -0.0249   30.7863    7.2610 C   0  0  0  0  0  0  0  0  0  0  0  0
    1.1172   30.4049    6.6113 N   0  0  0  0  0  0  0  0  0  0  0  0
    2.5827   28.6807    6.3360 N   0  0  0  0  0  0  0  0  0  0  0  0
    3.2365   27.5251    6.6032 C   0  0  0  0  0  0  0  0  0  0  0  0
    3.9871   26.9068    5.5819 C   0  0  0  0  0  0  0  0  0  0  0  0
    3.9347   25.0874    9.7381 S   0  0  0  0  0  0  0  0  0  0  0  0
    2.9329   26.1133   10.8427 C   0  0  0  0  0  0  0  0  0  0  0  0
   -2.5456   32.2197    7.4583 H   0  0  0  0  0  0  0  0  0  0  0  0
   -1.6083   32.5848    8.9465 H   0  0  0  0  0  0  0  0  0  0  0  0
    0.3548   26.3504    8.8841 H   0  0  0  0  0  0  0  0  0  0  0  0
   -1.0756   25.9287    7.8828 H   0  0  0  0  0  0  0  0  0  0  0  0
   -2.3913   25.7635   10.0760 H   0  0  0  0  0  0  0  0  0  0  0  0
   -1.7056   23.7998    8.7901 H   0  0  0  0  0  0  0  0  0  0  0  0
   -0.0549   23.8683    9.4951 H   0  0  0  0  0  0  0  0  0  0  0  0
   -2.6643   23.3154   10.9950 H   0  0  0  0  0  0  0  0  0  0  0  0
   -1.3742   22.1268   10.6083 H   0  0  0  0  0  0  0  0  0  0  0  0
   -1.2434   22.9254   12.9699 H   0  0  0  0  0  0  0  0  0  0  0  0
    0.2221   23.3603   12.0266 H   0  0  0  0  0  0  0  0  0  0  0  0
   -2.1477   25.1942   12.6804 H   0  0  0  0  0  0  0  0  0  0  0  0
   -0.4976   25.2825   13.3847 H   0  0  0  0  0  0  0  0  0  0  0  0
    0.4575   25.8452   11.2064 H   0  0  0  0  0  0  0  0  0  0  0  0
   -0.8891   26.9759   11.5737 H   0  0  0  0  0  0  0  0  0  0  0  0
    5.2489   25.2365    5.0459 H   0  0  0  0  0  0  0  0  0  0  0  0
    5.1989   24.2194    7.3147 H   0  0  0  0  0  0  0  0  0  0  0  0
    2.7061   27.4407    8.6982 H   0  0  0  0  0  0  0  0  0  0  0  0
    4.7300   27.6448    5.2450 H   0  0  0  0  0  0  0  0  0  0  0  0
    3.2866   26.6910    4.7617 H   0  0  0  0  0  0  0  0  0  0  0  0
    2.9290   25.6723   11.8504 H   0  0  0  0  0  0  0  0  0  0  0  0
    3.3582   27.1268   10.8878 H   0  0  0  0  0  0  0  0  0  0  0  0
    1.9025   26.1647   10.4611 H   0  0  0  0  0  0  0  0  0  0  0  0
  1 14  1  0  0  0  0
  1 21  2  0  0  0  0
  1 22  1  0  0  0  0
  2 18  1  0  0  0  0
  2 19  1  0  0  0  0
  3  4  1  0  0  0  0
  3 16  1  0  0  0  0
  4  5  1  0  0  0  0
  4  9  1  0  0  0  0
  5  6  1  0  0  0  0
  6  7  1  0  0  0  0
  7  8  1  0  0  0  0
  8  9  1  0  0  0  0
 10 11  2  0  0  0  0
 10 24  1  0  0  0  0
 11 12  1  0  0  0  0
 12 13  2  0  0  0  0
 12 25  1  0  0  0  0
 13 23  1  0  0  0  0
 14 15  2  0  0  0  0
 15 16  1  0  0  0  0
 15 17  1  0  0  0  0
 17 18  2  0  0  0  0
 17 20  1  0  0  0  0
 19 20  2  0  0  0  0
 20 21  1  0  0  0  0
 22 23  2  3  0  0  0
 23 24  1  0  0  0  0
 25 26  1  0  0  0  0
  2 27  1  0  0  0  0
  2 28  1  0  0  0  0
  3 29  1  0  0  0  0
  3 30  1  0  0  0  0
  4 31  1  0  0  0  0
  5 32  1  0  0  0  0
  5 33  1  0  0  0  0
  6 34  1  0  0  0  0
  6 35  1  0  0  0  0
  7 36  1  0  0  0  0
  7 37  1  0  0  0  0
  8 38  1  0  0  0  0
  8 39  1  0  0  0  0
  9 40  1  0  0  0  0
  9 41  1  0  0  0  0
 10 42  1  0  0  0  0
 11 43  1  0  0  0  0
 13 44  1  0  0  0  0
 24 45  1  0  0  0  0
 24 46  1  0  0  0  0
 26 47  1  0  0  0  0
 26 48  1  0  0  0  0
 26 49  1  0  0  0  0
M  END
> <r_user_dG.exp>
-7.862

$$$$
22
  -OEChem-05192314073D
 Structure written by MMmdl.
 49 52  0     0  0  0  0  0  0999 V2000
    1.3901   29.1077    6.7935 C   0  0  0  0  0  0  0  0  0  0  0  0
   -1.6911   31.9130    8.0794 C   0  0  0  0  0  0  0  0  0  0  0  0
   -0.7437   26.3748    8.8319 C   0  0  0  0  0  0  0  0  0  0  0  0
   -1.3142   25.5567    9.9914 C   0  0  0  0  0  0  0  0  0  0  0  0
   -1.1214   24.0589    9.6854 C   0  0  0  0  0  0  0  0  0  0  0  0
   -1.5824   23.1795   10.8502 C   0  0  0  0  0  0  0  0  0  0  0  0
   -0.8551   23.5463   12.1491 C   0  0  0  0  0  0  0  0  0  0  0  0
   -1.0780   25.0277   12.4857 C   0  0  0  0  0  0  0  0  0  0  0  0
   -0.6321   25.9351   11.3273 C   0  0  0  0  0  0  0  0  0  0  0  0
    4.6903   25.7129    5.8380 C   0  0  0  0  0  0  0  0  0  0  0  0
    4.6667   25.1395    7.1233 C   0  0  0  0  0  0  0  0  0  0  0  0
    3.9496   25.7658    8.1576 C   0  0  0  0  0  0  0  0  0  0  0  0
    3.2460   26.9556    7.8985 C   0  0  0  0  0  0  0  0  0  0  0  0
    0.6302   28.2313    7.4508 N   0  0  0  0  0  0  0  0  0  0  0  0
   -0.4898   28.6252    8.0923 C   0  0  0  0  0  0  0  0  0  0  0  0
   -1.1796   27.7315    8.8832 O   0  0  0  0  0  0  0  0  0  0  0  0
   -0.8660   29.9818    8.0000 C   0  0  0  0  0  0  0  0  0  0  0  0
   -1.9251   30.7129    8.5212 N   0  0  0  0  0  0  0  0  0  0  0  0
   -0.5542   32.0464    7.3306 N   0  0  0  0  0  0  0  0  0  0  0  0
   -0.0249   30.7863    7.2610 C   0  0  0  0  0  0  0  0  0  0  0  0
    1.1172   30.4049    6.6113 N   0  0  0  0  0  0  0  0  0  0  0  0
    2.5827   28.6807    6.3360 N   0  0  0  0  0  0  0  0  0  0  0  0
    3.2365   27.5251    6.6032 C   0  0  0  0  0  0  0  0  0  0  0  0
    3.9871   26.9068    5.5819 C   0  0  0  0  0  0  0  0  0  0  0  0
    3.9347   25.0874    9.7381 S   0  0  0  0  0  0  0  0  0  0  0  0
    2.9329   26.1133   10.8427 C   0  0  0  0  0  0  0  0  0  0  0  0
   -2.5456   32.2197    7.4583 H   0  0  0  0  0  0  0  0  0  0  0  0
   -1.6083   32.5848    8.9465 H   0  0  0  0  0  0  0  0  0  0  0  0
    0.3548   26.3504    8.8841 H   0  0  0  0  0  0  0  0  0  0  0  0
   -1.0756   25.9287    7.8828 H   0  0  0  0  0  0  0  0  0  0  0  0
   -2.3913   25.7635   10.0760 H   0  0  0  0  0  0  0  0  0  0  0  0
   -1.7056   23.7998    8.7901 H   0  0  0  0  0  0  0  0  0  0  0  0
   -0.0549   23.8683    9.4951 H   0  0  0  0  0  0  0  0  0  0  0  0
   -2.6643   23.3154   10.9950 H   0  0  0  0  0  0  0  0  0  0  0  0
   -1.3742   22.1268   10.6083 H   0  0  0  0  0  0  0  0  0  0  0  0
   -1.2434   22.9254   12.9699 H   0  0  0  0  0  0  0  0  0  0  0  0
    0.2221   23.3603   12.0266 H   0  0  0  0  0  0  0  0  0  0  0  0
   -2.1477   25.1942   12.6804 H   0  0  0  0  0  0  0  0  0  0  0  0
   -0.4976   25.2825   13.3847 H   0  0  0  0  0  0  0  0  0  0  0  0
    0.4575   25.8452   11.2064 H   0  0  0  0  0  0  0  0  0  0  0  0
   -0.8891   26.9759   11.5737 H   0  0  0  0  0  0  0  0  0  0  0  0
    5.2489   25.2365    5.0459 H   0  0  0  0  0  0  0  0  0  0  0  0
    5.1989   24.2194    7.3147 H   0  0  0  0  0  0  0  0  0  0  0  0
    2.1960   26.7631    8.1641 H   0  0  0  0  0  0  0  0  0  0  0  0
    3.6610   27.7186    8.5734 H   0  0  0  0  0  0  0  0  0  0  0  0
    4.0232   27.3508    4.5981 H   0  0  0  0  0  0  0  0  0  0  0  0
    2.9290   25.6723   11.8504 H   0  0  0  0  0  0  0  0  0  0  0  0
    3.3582   27.1268   10.8878 H   0  0  0  0  0  0  0  0  0  0  0  0
    1.9025   26.1647   10.4611 H   0  0  0  0  0  0  0  0  0  0  0  0
  1 14  1  0  0  0  0
  1 21  2  0  0  0  0
  1 22  1  0  0  0  0
  2 18  1  0  0  0  0
  2 19  1  0  0  0  0
  3  4  1  0  0  0  0
  3 16  1  0  0  0  0
  4  5  1  0  0  0  0
  4  9  1  0  0  0  0
  5  6  1  0  0  0  0
  6  7  1  0  0  0  0
  7  8  1  0  0  0  0
  8  9  1  0  0  0  0
 10 11  1  0  0  0  0
 10 24  2  0  0  0  0
 11 12  2  0  0  0  0
 12 13  1  0  0  0  0
 12 25  1  0  0  0  0
 13 23  1  0  0  0  0
 14 15  2  0  0  0  0
 15 16  1  0  0  0  0
 15 17  1  0  0  0  0
 17 18  2  0  0  0  0
 17 20  1  0  0  0  0
 19 20  2  0  0  0  0
 20 21  1  0  0  0  0
 22 23  2  3  0  0  0
 23 24  1  0  0  0  0
 25 26  1  0  0  0  0
  2 27  1  0  0  0  0
  2 28  1  0  0  0  0
  3 29  1  0  0  0  0
  3 30  1  0  0  0  0
  4 31  1  0  0  0  0
  5 32  1  0  0  0  0
  5 33  1  0  0  0  0
  6 34  1  0  0  0  0
  6 35  1  0  0  0  0
  7 36  1  0  0  0  0
  7 37  1  0  0  0  0
  8 38  1  0  0  0  0
  8 39  1  0  0  0  0
  9 40  1  0  0  0  0
  9 41  1  0  0  0  0
 10 42  1  0  0  0  0
 11 43  1  0  0  0  0
 13 44  1  0  0  0  0
 13 45  1  0  0  0  0
 24 46  1  0  0  0  0
 26 47  1  0  0  0  0
 26 48  1  0  0  0  0
 26 49  1  0  0  0  0
M  END
> <r_user_dG.exp>
-7.862

$$$$
22
  -OEChem-05192314073D
 Structure written by MMmdl.
 49 52  0     1  0  0  0  0  0999 V2000
    1.3901   29.1077    6.7935 C   0  0  0  0  0  0  0  0  0  0  0  0
   -1.6911   31.9130    8.0794 C   0  0  0  0  0  0  0  0  0  0  0  0
   -0.7437   26.3748    8.8319 C   0  0  0  0  0  0  0  0  0  0  0  0
   -1.3142   25.5567    9.9914 C   0  0  0  0  0  0  0  0  0  0  0  0
   -1.1214   24.0589    9.6854 C   0  0  0  0  0  0  0  0  0  0  0  0
   -1.5824   23.1795   10.8502 C   0  0  0  0  0  0  0  0  0  0  0  0
   -0.8551   23.5463   12.1491 C   0  0  0  0  0  0  0  0  0  0  0  0
   -1.0780   25.0277   12.4857 C   0  0  0  0  0  0  0  0  0  0  0  0
   -0.6321   25.9351   11.3273 C   0  0  0  0  0  0  0  0  0  0  0  0
    4.6903   25.7129    5.8380 C   0  0  0  0  0  0  0  0  0  0  0  0
    4.6667   25.1395    7.1233 C   0  0  0  0  0  0  0  0  0  0  0  0
    3.9496   25.7658    8.1576 C   0  0  0  0  0  0  0  0  0  0  0  0
    3.2460   26.9556    7.8985 C   0  0  0  0  0  0  0  0  0  0  0  0
    0.6302   28.2313    7.4508 N   0  0  0  0  0  0  0  0  0  0  0  0
   -0.4898   28.6252    8.0923 C   0  0  0  0  0  0  0  0  0  0  0  0
   -1.1796   27.7315    8.8832 O   0  0  0  0  0  0  0  0  0  0  0  0
   -0.8660   29.9818    8.0000 C   0  0  0  0  0  0  0  0  0  0  0  0
   -1.9251   30.7129    8.5212 N   0  0  0  0  0  0  0  0  0  0  0  0
   -0.5542   32.0464    7.3306 N   0  0  0  0  0  0  0  0  0  0  0  0
   -0.0249   30.7863    7.2610 C   0  0  0  0  0  0  0  0  0  0  0  0
    1.1172   30.4049    6.6113 N   0  0  0  0  0  0  0  0  0  0  0  0
    2.5827   28.6807    6.3360 N   0  0  0  0  0  0  0  0  0  0  0  0
    3.2365   27.5251    6.6032 C   0  0  3  0  0  0  0  0  0  0  0  0
    3.9871   26.9068    5.5819 C   0  0  0  0  0  0  0  0  0  0  0  0
    3.9347   25.0874    9.7381 S   0  0  0  0  0  0  0  0  0  0  0  0
    2.9329   26.1133   10.8427 C   0  0  0  0  0  0  0  0  0  0  0  0
   -2.3473   32.7449    8.2886 H   0  0  0  0  0  0  0  0  0  0  0  0
    0.3548   26.3504    8.8841 H   0  0  0  0  0  0  0  0  0  0  0  0
   -1.0756   25.9287    7.8828 H   0  0  0  0  0  0  0  0  0  0  0  0
   -2.3913   25.7635   10.0760 H   0  0  0  0  0  0  0  0  0  0  0  0
   -1.7056   23.7998    8.7901 H   0  0  0  0  0  0  0  0  0  0  0  0
   -0.0549   23.8683    9.4951 H   0  0  0  0  0  0  0  0  0  0  0  0
   -2.6643   23.3154   10.9950 H   0  0  0  0  0  0  0  0  0  0  0  0
   -1.3742   22.1268   10.6083 H   0  0  0  0  0  0  0  0  0  0  0  0
   -1.2434   22.9254   12.9699 H   0  0  0  0  0  0  0  0  0  0  0  0
    0.2221   23.3603   12.0266 H   0  0  0  0  0  0  0  0  0  0  0  0
   -2.1477   25.1942   12.6804 H   0  0  0  0  0  0  0  0  0  0  0  0
   -0.4976   25.2825   13.3847 H   0  0  0  0  0  0  0  0  0  0  0  0
    0.4575   25.8452   11.2064 H   0  0  0  0  0  0  0  0  0  0  0  0
   -0.8891   26.9759   11.5737 H   0  0  0  0  0  0  0  0  0  0  0  0
    5.2489   25.2365    5.0459 H   0  0  0  0  0  0  0  0  0  0  0  0
    4.2475   24.1285    7.0127 H   0  0  0  0  0  0  0  0  0  0  0  0
    5.7118   25.0684    7.4589 H   0  0  0  0  0  0  0  0  0  0  0  0
    2.7061   27.4407    8.6982 H   0  0  0  0  0  0  0  0  0  0  0  0
    2.3476   26.9370    6.3312 H   0  0  0  0  0  0  0  0  0  0  0  0
    4.0232   27.3508    4.5981 H   0  0  0  0  0  0  0  0  0  0  0  0
    2.9290   25.6723   11.8504 H   0  0  0  0  0  0  0  0  0  0  0  0
    3.3582   27.1268   10.8878 H   0  0  0  0  0  0  0  0  0  0  0  0
    1.9025   26.1647   10.4611 H   0  0  0  0  0  0  0  0  0  0  0  0
  1 14  1  0  0  0  0
  1 21  1  0  0  0  0
  1 22  2  0  0  0  0
  2 18  1  0  0  0  0
  2 19  2  0  0  0  0
  3  4  1  0  0  0  0
  3 16  1  0  0  0  0
  4  5  1  0  0  0  0
  4  9  1  0  0  0  0
  5  6  1  0  0  0  0
  6  7  1  0  0  0  0
  7  8  1  0  0  0  0
  8  9  1  0  0  0  0
 10 11  1  0  0  0  0
 10 24  2  0  0  0  0
 11 12  1  0  0  0  0
 12 13  2  0  0  0  0
 12 25  1  0  0  0  0
 13 23  1  0  0  0  0
 14 15  2  0  0  0  0
 15 16  1  0  0  0  0
 15 17  1  0  0  0  0
 17 18  2  0  0  0  0
 17 20  1  0  0  0  0
 19 20  1  0  0  0  0
 20 21  2  0  0  0  0
 22 23  1  0  0  0  0
 23 24  1  0  0  0  0
 25 26  1  0  0  0  0
  2 27  1  0  0  0  0
  3 28  1  0  0  0  0
  3 29  1  0  0  0  0
  4 30  1  0  0  0  0
  5 31  1  0  0  0  0
  5 32  1  0  0  0  0
  6 33  1  0  0  0  0
  6 34  1  0  0  0  0
  7 35  1  0  0  0  0
  7 36  1  0  0  0  0
  8 37  1  0  0  0  0
  8 38  1  0  0  0  0
  9 39  1  0  0  0  0
  9 40  1  0  0  0  0
 10 41  1  0  0  0  0
 11 42  1  0  0  0  0
 11 43  1  0  0  0  0
 13 44  1  0  0  0  0
 23 45  1  0  0  0  0
 24 46  1  0  0  0  0
 26 47  1  0  0  0  0
 26 48  1  0  0  0  0
 26 49  1  0  0  0  0
M  END
> <r_user_dG.exp>
-7.862

$$$$
22
  -OEChem-05192314073D
 Structure written by MMmdl.
 49 52  0     1  0  0  0  0  0999 V2000
    1.3901   29.1077    6.7935 C   0  0  0  0  0  0  0  0  0  0  0  0
   -1.6911   31.9130    8.0794 C   0  0  0  0  0  0  0  0  0  0  0  0
   -0.7437   26.3748    8.8319 C   0  0  0  0  0  0  0  0  0  0  0  0
   -1.3142   25.5567    9.9914 C   0  0  0  0  0  0  0  0  0  0  0  0
   -1.1214   24.0589    9.6854 C   0  0  0  0  0  0  0  0  0  0  0  0
   -1.5824   23.1795   10.8502 C   0  0  0  0  0  0  0  0  0  0  0  0
   -0.8551   23.5463   12.1491 C   0  0  0  0  0  0  0  0  0  0  0  0
   -1.0780   25.0277   12.4857 C   0  0  0  0  0  0  0  0  0  0  0  0
   -0.6321   25.9351   11.3273 C   0  0  0  0  0  0  0  0  0  0  0  0
    4.6903   25.7129    5.8380 C   0  0  0  0  0  0  0  0  0  0  0  0
    4.6667   25.1395    7.1233 C   0  0  0  0  0  0  0  0  0  0  0  0
    3.9496   25.7658    8.1576 C   0  0  0  0  0  0  0  0  0  0  0  0
    3.2460   26.9556    7.8985 C   0  0  0  0  0  0  0  0  0  0  0  0
    0.6302   28.2313    7.4508 N   0  0  0  0  0  0  0  0  0  0  0  0
   -0.4898   28.6252    8.0923 C   0  0  0  0  0  0  0  0  0  0  0  0
   -1.1796   27.7315    8.8832 O   0  0  0  0  0  0  0  0  0  0  0  0
   -0.8660   29.9818    8.0000 C   0  0  3  0  0  0  0  0  0  0  0  0
   -1.9251   30.7129    8.5212 N   0  0  0  0  0  0  0  0  0  0  0  0
   -0.5542   32.0464    7.3306 N   0  0  0  0  0  0  0  0  0  0  0  0
   -0.0249   30.7863    7.2610 C   0  0  0  0  0  0  0  0  0  0  0  0
    1.1172   30.4049    6.6113 N   0  0  0  0  0  0  0  0  0  0  0  0
    2.5827   28.6807    6.3360 N   0  0  0  0  0  0  0  0  0  0  0  0
    3.2365   27.5251    6.6032 C   0  0  0  0  0  0  0  0  0  0  0  0
    3.9871   26.9068    5.5819 C   0  0  0  0  0  0  0  0  0  0  0  0
    3.9347   25.0874    9.7381 S   0  0  0  0  0  0  0  0  0  0  0  0
    2.9329   26.1133   10.8427 C   0  0  0  0  0  0  0  0  0  0  0  0
   -2.3473   32.7449    8.2886 H   0  0  0  0  0  0  0  0  0  0  0  0
    0.3548   26.3504    8.8841 H   0  0  0  0  0  0  0  0  0  0  0  0
   -1.0756   25.9287    7.8828 H   0  0  0  0  0  0  0  0  0  0  0  0
   -2.3913   25.7635   10.0760 H   0  0  0  0  0  0  0  0  0  0  0  0
   -1.7056   23.7998    8.7901 H   0  0  0  0  0  0  0  0  0  0  0  0
   -0.0549   23.8683    9.4951 H   0  0  0  0  0  0  0  0  0  0  0  0
   -2.6643   23.3154   10.9950 H   0  0  0  0  0  0  0  0  0  0  0  0
   -1.3742   22.1268   10.6083 H   0  0  0  0  0  0  0  0  0  0  0  0
   -1.2434   22.9254   12.9699 H   0  0  0  0  0  0  0  0  0  0  0  0
    0.2221   23.3603   12.0266 H   0  0  0  0  0  0  0  0  0  0  0  0
   -2.1477   25.1942   12.6804 H   0  0  0  0  0  0  0  0  0  0  0  0
   -0.4976   25.2825   13.3847 H   0  0  0  0  0  0  0  0  0  0  0  0
    0.4575   25.8452   11.2064 H   0  0  0  0  0  0  0  0  0  0  0  0
   -0.8891   26.9759   11.5737 H   0  0  0  0  0  0  0  0  0  0  0  0
    5.2489   25.2365    5.0459 H   0  0  0  0  0  0  0  0  0  0  0  0
    4.2475   24.1285    7.0127 H   0  0  0  0  0  0  0  0  0  0  0  0
    5.7118   25.0684    7.4589 H   0  0  0  0  0  0  0  0  0  0  0  0
    2.7061   27.4407    8.6982 H   0  0  0  0  0  0  0  0  0  0  0  0
   -1.4557   29.7617    7.0979 H   0  0  0  0  0  0  0  0  0  0  0  0
    4.0232   27.3508    4.5981 H   0  0  0  0  0  0  0  0  0  0  0  0
    2.9290   25.6723   11.8504 H   0  0  0  0  0  0  0  0  0  0  0  0
    3.3582   27.1268   10.8878 H   0  0  0  0  0  0  0  0  0  0  0  0
    1.9025   26.1647   10.4611 H   0  0  0  0  0  0  0  0  0  0  0  0
  1 14  1  0  0  0  0
  1 21  2  0  0  0  0
  1 22  1  0  0  0  0
  2 18  2  0  0  0  0
  2 19  1  0  0  0  0
  3  4  1  0  0  0  0
  3 16  1  0  0  0  0
  4  5  1  0  0  0  0
  4  9  1  0  0  0  0
  5  6  1  0  0  0  0
  6  7  1  0  0  0  0
  7  8  1  0  0  0  0
  8  9  1  0  0  0  0
 10 11  1  0  0  0  0
 10 24  2  0  0  0  0
 11 12  1  0  0  0  0
 12 13  2  0  0  0  0
 12 25  1  0  0  0  0
 13 23  1  0  0  0  0
 14 15  2  0  0  0  0
 15 16  1  0  0  0  0
 15 17  1  0  0  0  0
 17 18  1  0  0  0  0
 17 20  1  0  0  0  0
 19 20  2  0  0  0  0
 20 21  1  0  0  0  0
 22 23  2  3  0  0  0
 23 24  1  0  0  0  0
 25 26  1  0  0  0  0
  2 27  1  0  0  0  0
  3 28  1  0  0  0  0
  3 29  1  0  0  0  0
  4 30  1  0  0  0  0
  5 31  1  0  0  0  0
  5 32  1  0  0  0  0
  6 33  1  0  0  0  0
  6 34  1  0  0  0  0
  7 35  1  0  0  0  0
  7 36  1  0  0  0  0
  8 37  1  0  0  0  0
  8 38  1  0  0  0  0
  9 39  1  0  0  0  0
  9 40  1  0  0  0  0
 10 41  1  0  0  0  0
 11 42  1  0  0  0  0
 11 43  1  0  0  0  0
 13 44  1  0  0  0  0
 17 45  1  0  0  0  0
 24 46  1  0  0  0  0
 26 47  1  0  0  0  0
 26 48  1  0  0  0  0
 26 49  1  0  0  0  0
M  END
> <r_user_dG.exp>
-7.862

$$$$
22
  -OEChem-05192314073D
 Structure written by MMmdl.
 49 52  0     1  0  0  0  0  0999 V2000
    1.3901   29.1077    6.7935 C   0  0  0  0  0  0  0  0  0  0  0  0
   -1.6911   31.9130    8.0794 C   0  0  0  0  0  0  0  0  0  0  0  0
   -0.7437   26.3748    8.8319 C   0  0  0  0  0  0  0  0  0  0  0  0
   -1.3142   25.5567    9.9914 C   0  0  0  0  0  0  0  0  0  0  0  0
   -1.1214   24.0589    9.6854 C   0  0  0  0  0  0  0  0  0  0  0  0
   -1.5824   23.1795   10.8502 C   0  0  0  0  0  0  0  0  0  0  0  0
   -0.8551   23.5463   12.1491 C   0  0  0  0  0  0  0  0  0  0  0  0
   -1.0780   25.0277   12.4857 C   0  0  0  0  0  0  0  0  0  0  0  0
   -0.6321   25.9351   11.3273 C   0  0  0  0  0  0  0  0  0  0  0  0
    4.6903   25.7129    5.8380 C   0  0  0  0  0  0  0  0  0  0  0  0
    4.6667   25.1395    7.1233 C   0  0  0  0  0  0  0  0  0  0  0  0
    3.9496   25.7658    8.1576 C   0  0  0  0  0  0  0  0  0  0  0  0
    3.2460   26.9556    7.8985 C   0  0  0  0  0  0  0  0  0  0  0  0
    0.6302   28.2313    7.4508 N   0  0  0  0  0  0  0  0  0  0  0  0
   -0.4898   28.6252    8.0923 C   0  0  0  0  0  0  0  0  0  0  0  0
   -1.1796   27.7315    8.8832 O   0  0  0  0  0  0  0  0  0  0  0  0
   -0.8660   29.9818    8.0000 C   0  0  0  0  0  0  0  0  0  0  0  0
   -1.9251   30.7129    8.5212 N   0  0  0  0  0  0  0  0  0  0  0  0
   -0.5542   32.0464    7.3306 N   0  0  0  0  0  0  0  0  0  0  0  0
   -0.0249   30.7863    7.2610 C   0  0  3  0  0  0  0  0  0  0  0  0
    1.1172   30.4049    6.6113 N   0  0  0  0  0  0  0  0  0  0  0  0
    2.5827   28.6807    6.3360 N   0  0  0  0  0  0  0  0  0  0  0  0
    3.2365   27.5251    6.6032 C   0  0  0  0  0  0  0  0  0  0  0  0
    3.9871   26.9068    5.5819 C   0  0  0  0  0  0  0  0  0  0  0  0
    3.9347   25.0874    9.7381 S   0  0  0  0  0  0  0  0  0  0  0  0
    2.9329   26.1133   10.8427 C   0  0  0  0  0  0  0  0  0  0  0  0
   -2.3473   32.7449    8.2886 H   0  0  0  0  0  0  0  0  0  0  0  0
    0.3548   26.3504    8.8841 H   0  0  0  0  0  0  0  0  0  0  0  0
   -1.0756   25.9287    7.8828 H   0  0  0  0  0  0  0  0  0  0  0  0
   -2.3913   25.7635   10.0760 H   0  0  0  0  0  0  0  0  0  0  0  0
   -1.7056   23.7998    8.7901 H   0  0  0  0  0  0  0  0  0  0  0  0
   -0.0549   23.8683    9.4951 H   0  0  0  0  0  0  0  0  0  0  0  0
   -2.6643   23.3154   10.9950 H   0  0  0  0  0  0  0  0  0  0  0  0
   -1.3742   22.1268   10.6083 H   0  0  0  0  0  0  0  0  0  0  0  0
   -1.2434   22.9254   12.9699 H   0  0  0  0  0  0  0  0  0  0  0  0
    0.2221   23.3603   12.0266 H   0  0  0  0  0  0  0  0  0  0  0  0
   -2.1477   25.1942   12.6804 H   0  0  0  0  0  0  0  0  0  0  0  0
   -0.4976   25.2825   13.3847 H   0  0  0  0  0  0  0  0  0  0  0  0
    0.4575   25.8452   11.2064 H   0  0  0  0  0  0  0  0  0  0  0  0
   -0.8891   26.9759   11.5737 H   0  0  0  0  0  0  0  0  0  0  0  0
    5.2489   25.2365    5.0459 H   0  0  0  0  0  0  0  0  0  0  0  0
    4.2475   24.1285    7.0127 H   0  0  0  0  0  0  0  0  0  0  0  0
    5.7118   25.0684    7.4589 H   0  0  0  0  0  0  0  0  0  0  0  0
    2.7061   27.4407    8.6982 H   0  0  0  0  0  0  0  0  0  0  0  0
   -0.6153   30.5819    6.3556 H   0  0  0  0  0  0  0  0  0  0  0  0
    4.0232   27.3508    4.5981 H   0  0  0  0  0  0  0  0  0  0  0  0
    2.9290   25.6723   11.8504 H   0  0  0  0  0  0  0  0  0  0  0  0
    3.3582   27.1268   10.8878 H   0  0  0  0  0  0  0  0  0  0  0  0
    1.9025   26.1647   10.4611 H   0  0  0  0  0  0  0  0  0  0  0  0
  1 14  1  0  0  0  0
  1 21  2  0  0  0  0
  1 22  1  0  0  0  0
  2 18  1  0  0  0  0
  2 19  2  0  0  0  0
  3  4  1  0  0  0  0
  3 16  1  0  0  0  0
  4  5  1  0  0  0  0
  4  9  1  0  0  0  0
  5  6  1  0  0  0  0
  6  7  1  0  0  0  0
  7  8  1  0  0  0  0
  8  9  1  0  0  0  0
 10 11  1  0  0  0  0
 10 24  2  0  0  0  0
 11 12  1  0  0  0  0
 12 13  2  0  0  0  0
 12 25  1  0  0  0  0
 13 23  1  0  0  0  0
 14 15  2  0  0  0  0
 15 16  1  0  0  0  0
 15 17  1  0  0  0  0
 17 18  2  0  0  0  0
 17 20  1  0  0  0  0
 19 20  1  0  0  0  0
 20 21  1  0  0  0  0
 22 23  2  3  0  0  0
 23 24  1  0  0  0  0
 25 26  1  0  0  0  0
  2 27  1  0  0  0  0
  3 28  1  0  0  0  0
  3 29  1  0  0  0  0
  4 30  1  0  0  0  0
  5 31  1  0  0  0  0
  5 32  1  0  0  0  0
  6 33  1  0  0  0  0
  6 34  1  0  0  0  0
  7 35  1  0  0  0  0
  7 36  1  0  0  0  0
  8 37  1  0  0  0  0
  8 38  1  0  0  0  0
  9 39  1  0  0  0  0
  9 40  1  0  0  0  0
 10 41  1  0  0  0  0
 11 42  1  0  0  0  0
 11 43  1  0  0  0  0
 13 44  1  0  0  0  0
 20 45  1  0  0  0  0
 24 46  1  0  0  0  0
 26 47  1  0  0  0  0
 26 48  1  0  0  0  0
 26 49  1  0  0  0  0
M  END
> <r_user_dG.exp>
-7.862

$$$$
22
  -OEChem-05192314073D
 Structure written by MMmdl.
 49 52  0     1  0  0  0  0  0999 V2000
    1.3901   29.1077    6.7935 C   0  0  0  0  0  0  0  0  0  0  0  0
   -1.6911   31.9130    8.0794 C   0  0  0  0  0  0  0  0  0  0  0  0
   -0.7437   26.3748    8.8319 C   0  0  0  0  0  0  0  0  0  0  0  0
   -1.3142   25.5567    9.9914 C   0  0  0  0  0  0  0  0  0  0  0  0
   -1.1214   24.0589    9.6854 C   0  0  0  0  0  0  0  0  0  0  0  0
   -1.5824   23.1795   10.8502 C   0  0  0  0  0  0  0  0  0  0  0  0
   -0.8551   23.5463   12.1491 C   0  0  0  0  0  0  0  0  0  0  0  0
   -1.0780   25.0277   12.4857 C   0  0  0  0  0  0  0  0  0  0  0  0
   -0.6321   25.9351   11.3273 C   0  0  0  0  0  0  0  0  0  0  0  0
    4.6903   25.7129    5.8380 C   0  0  0  0  0  0  0  0  0  0  0  0
    4.6667   25.1395    7.1233 C   0  0  0  0  0  0  0  0  0  0  0  0
    3.9496   25.7658    8.1576 C   0  0  0  0  0  0  0  0  0  0  0  0
    3.2460   26.9556    7.8985 C   0  0  0  0  0  0  0  0  0  0  0  0
    0.6302   28.2313    7.4508 N   0  0  0  0  0  0  0  0  0  0  0  0
   -0.4898   28.6252    8.0923 C   0  0  3  0  0  0  0  0  0  0  0  0
   -1.1796   27.7315    8.8832 O   0  0  0  0  0  0  0  0  0  0  0  0
   -0.8660   29.9818    8.0000 C   0  0  0  0  0  0  0  0  0  0  0  0
   -1.9251   30.7129    8.5212 N   0  0  0  0  0  0  0  0  0  0  0  0
   -0.5542   32.0464    7.3306 N   0  0  0  0  0  0  0  0  0  0  0  0
   -0.0249   30.7863    7.2610 C   0  0  0  0  0  0  0  0  0  0  0  0
    1.1172   30.4049    6.6113 N   0  0  0  0  0  0  0  0  0  0  0  0
    2.5827   28.6807    6.3360 N   0  0  0  0  0  0  0  0  0  0  0  0
    3.2365   27.5251    6.6032 C   0  0  0  0  0  0  0  0  0  0  0  0
    3.9871   26.9068    5.5819 C   0  0  0  0  0  0  0  0  0  0  0  0
    3.9347   25.0874    9.7381 S   0  0  0  0  0  0  0  0  0  0  0  0
    2.9329   26.1133   10.8427 C   0  0  0  0  0  0  0  0  0  0  0  0
   -2.3473   32.7449    8.2886 H   0  0  0  0  0  0  0  0  0  0  0  0
    0.3548   26.3504    8.8841 H   0  0  0  0  0  0  0  0  0  0  0  0
   -1.0756   25.9287    7.8828 H   0  0  0  0  0  0  0  0  0  0  0  0
   -2.3913   25.7635   10.0760 H   0  0  0  0  0  0  0  0  0  0  0  0
   -1.7056   23.7998    8.7901 H   0  0  0  0  0  0  0  0  0  0  0  0
   -0.0549   23.8683    9.4951 H   0  0  0  0  0  0  0  0  0  0  0  0
   -2.6643   23.3154   10.9950 H   0  0  0  0  0  0  0  0  0  0  0  0
   -1.3742   22.1268   10.6083 H   0  0  0  0  0  0  0  0  0  0  0  0
   -1.2434   22.9254   12.9699 H   0  0  0  0  0  0  0  0  0  0  0  0
    0.2221   23.3603   12.0266 H   0  0  0  0  0  0  0  0  0  0  0  0
   -2.1477   25.1942   12.6804 H   0  0  0  0  0  0  0  0  0  0  0  0
   -0.4976   25.2825   13.3847 H   0  0  0  0  0  0  0  0  0  0  0  0
    0.4575   25.8452   11.2064 H   0  0  0  0  0  0  0  0  0  0  0  0
   -0.8891   26.9759   11.5737 H   0  0  0  0  0  0  0  0  0  0  0  0
    5.2489   25.2365    5.0459 H   0  0  0  0  0  0  0  0  0  0  0  0
    4.2475   24.1285    7.0127 H   0  0  0  0  0  0  0  0  0  0  0  0
    5.7118   25.0684    7.4589 H   0  0  0  0  0  0  0  0  0  0  0  0
    2.7061   27.4407    8.6982 H   0  0  0  0  0  0  0  0  0  0  0  0
   -1.1094   28.3692    7.2202 H   0  0  0  0  0  0  0  0  0  0  0  0
    4.0232   27.3508    4.5981 H   0  0  0  0  0  0  0  0  0  0  0  0
    2.9290   25.6723   11.8504 H   0  0  0  0  0  0  0  0  0  0  0  0
    3.3582   27.1268   10.8878 H   0  0  0  0  0  0  0  0  0  0  0  0
    1.9025   26.1647   10.4611 H   0  0  0  0  0  0  0  0  0  0  0  0
  1 14  2  0  0  0  0
  1 21  1  0  0  0  0
  1 22  1  0  0  0  0
  2 18  1  0  0  0  0
  2 19  2  0  0  0  0
  3  4  1  0  0  0  0
  3 16  1  0  0  0  0
  4  5  1  0  0  0  0
  4  9  1  0  0  0  0
  5  6  1  0  0  0  0
  6  7  1  0  0  0  0
  7  8  1  0  0  0  0
  8  9  1  0  0  0  0
 10 11  1  0  0  0  0
 10 24  2  0  0  0  0
 11 12  1  0  0  0  0
 12 13  2  0  0  0  0
 12 25  1  0  0  0  0
 13 23  1  0  0  0  0
 14 15  1  0  0  0  0
 15 16  1  0  0  0  0
 15 17  1  0  0  0  0
 17 18  2  0  0  0  0
 17 20  1  0  0  0  0
 19 20  1  0  0  0  0
 20 21  2  0  0  0  0
 22 23  2  3  0  0  0
 23 24  1  0  0  0  0
 25 26  1  0  0  0  0
  2 27  1  0  0  0  0
  3 28  1  0  0  0  0
  3 29  1  0  0  0  0
  4 30  1  0  0  0  0
  5 31  1  0  0  0  0
  5 32  1  0  0  0  0
  6 33  1  0  0  0  0
  6 34  1  0  0  0  0
  7 35  1  0  0  0  0
  7 36  1  0  0  0  0
  8 37  1  0  0  0  0
  8 38  1  0  0  0  0
  9 39  1  0  0  0  0
  9 40  1  0  0  0  0
 10 41  1  0  0  0  0
 11 42  1  0  0  0  0
 11 43  1  0  0  0  0
 13 44  1  0  0  0  0
 15 45  1  0  0  0  0
 24 46  1  0  0  0  0
 26 47  1  0  0  0  0
 26 48  1  0  0  0  0
 26 49  1  0  0  0  0
M  END
> <r_user_dG.exp>
-7.862

$$$$
22
  -OEChem-05192314073D
 Structure written by MMmdl.
 49 52  0     1  0  0  0  0  0999 V2000
    1.3901   29.1077    6.7935 C   0  0  0  0  0  0  0  0  0  0  0  0
   -1.6911   31.9130    8.0794 C   0  0  0  0  0  0  0  0  0  0  0  0
   -0.7437   26.3748    8.8319 C   0  0  0  0  0  0  0  0  0  0  0  0
   -1.3142   25.5567    9.9914 C   0  0  0  0  0  0  0  0  0  0  0  0
   -1.1214   24.0589    9.6854 C   0  0  0  0  0  0  0  0  0  0  0  0
   -1.5824   23.1795   10.8502 C   0  0  0  0  0  0  0  0  0  0  0  0
   -0.8551   23.5463   12.1491 C   0  0  0  0  0  0  0  0  0  0  0  0
   -1.0780   25.0277   12.4857 C   0  0  0  0  0  0  0  0  0  0  0  0
   -0.6321   25.9351   11.3273 C   0  0  0  0  0  0  0  0  0  0  0  0
    4.6903   25.7129    5.8380 C   0  0  0  0  0  0  0  0  0  0  0  0
    4.6667   25.1395    7.1233 C   0  0  0  0  0  0  0  0  0  0  0  0
    3.9496   25.7658    8.1576 C   0  0  3  0  0  0  0  0  0  0  0  0
    3.2460   26.9556    7.8985 C   0  0  0  0  0  0  0  0  0  0  0  0
    0.6302   28.2313    7.4508 N   0  0  0  0  0  0  0  0  0  0  0  0
   -0.4898   28.6252    8.0923 C   0  0  0  0  0  0  0  0  0  0  0  0
   -1.1796   27.7315    8.8832 O   0  0  0  0  0  0  0  0  0  0  0  0
   -0.8660   29.9818    8.0000 C   0  0  0  0  0  0  0  0  0  0  0  0
   -1.9251   30.7129    8.5212 N   0  0  0  0  0  0  0  0  0  0  0  0
   -0.5542   32.0464    7.3306 N   0  0  0  0  0  0  0  0  0  0  0  0
   -0.0249   30.7863    7.2610 C   0  0  0  0  0  0  0  0  0  0  0  0
    1.1172   30.4049    6.6113 N   0  0  0  0  0  0  0  0  0  0  0  0
    2.5827   28.6807    6.3360 N   0  0  0  0  0  0  0  0  0  0  0  0
    3.2365   27.5251    6.6032 C   0  0  0  0  0  0  0  0  0  0  0  0
    3.9871   26.9068    5.5819 C   0  0  0  0  0  0  0  0  0  0  0  0
    3.9347   25.0874    9.7381 S   0  0  0  0  0  0  0  0  0  0  0  0
    2.9329   26.1133   10.8427 C   0  0  0  0  0  0  0  0  0  0  0  0
   -2.3473   32.7449    8.2886 H   0  0  0  0  0  0  0  0  0  0  0  0
    0.3548   26.3504    8.8841 H   0  0  0  0  0  0  0  0  0  0  0  0
   -1.0756   25.9287    7.8828 H   0  0  0  0  0  0  0  0  0  0  0  0
   -2.3913   25.7635   10.0760 H   0  0  0  0  0  0  0  0  0  0  0  0
   -1.7056   23.7998    8.7901 H   0  0  0  0  0  0  0  0  0  0  0  0
   -0.0549   23.8683    9.4951 H   0  0  0  0  0  0  0  0  0  0  0  0
   -2.6643   23.3154   10.9950 H   0  0  0  0  0  0  0  0  0  0  0  0
   -1.3742   22.1268   10.6083 H   0  0  0  0  0  0  0  0  0  0  0  0
   -1.2434   22.9254   12.9699 H   0  0  0  0  0  0  0  0  0  0  0  0
    0.2221   23.3603   12.0266 H   0  0  0  0  0  0  0  0  0  0  0  0
   -2.1477   25.1942   12.6804 H   0  0  0  0  0  0  0  0  0  0  0  0
   -0.4976   25.2825   13.3847 H   0  0  0  0  0  0  0  0  0  0  0  0
    0.4575   25.8452   11.2064 H   0  0  0  0  0  0  0  0  0  0  0  0
   -0.8891   26.9759   11.5737 H   0  0  0  0  0  0  0  0  0  0  0  0
    5.2489   25.2365    5.0459 H   0  0  0  0  0  0  0  0  0  0  0  0
    4.2475   24.1285    7.0127 H   0  0  0  0  0  0  0  0  0  0  0  0
    5.7118   25.0684    7.4589 H   0  0  0  0  0  0  0  0  0  0  0  0
    3.0567   25.1790    7.8960 H   0  0  0  0  0  0  0  0  0  0  0  0
    2.7061   27.4407    8.6982 H   0  0  0  0  0  0  0  0  0  0  0  0
    4.0232   27.3508    4.5981 H   0  0  0  0  0  0  0  0  0  0  0  0
    2.9290   25.6723   11.8504 H   0  0  0  0  0  0  0  0  0  0  0  0
    3.3582   27.1268   10.8878 H   0  0  0  0  0  0  0  0  0  0  0  0
    1.9025   26.1647   10.4611 H   0  0  0  0  0  0  0  0  0  0  0  0
  1 14  1  0  0  0  0
  1 21  1  0  0  0  0
  1 22  2  0  0  0  0
  2 18  1  0  0  0  0
  2 19  2  0  0  0  0
  3  4  1  0  0  0  0
  3 16  1  0  0  0  0
  4  5  1  0  0  0  0
  4  9  1  0  0  0  0
  5  6  1  0  0  0  0
  6  7  1  0  0  0  0
  7  8  1  0  0  0  0
  8  9  1  0  0  0  0
 10 11  1  0  0  0  0
 10 24  2  0  0  0  0
 11 12  1  0  0  0  0
 12 13  1  0  0  0  0
 12 25  1  0  0  0  0
 13 23  2  0  0  0  0
 14 15  2  0  0  0  0
 15 16  1  0  0  0  0
 15 17  1  0  0  0  0
 17 18  2  0  0  0  0
 17 20  1  0  0  0  0
 19 20  1  0  0  0  0
 20 21  2  0  0  0  0
 22 23  1  0  0  0  0
 23 24  1  0  0  0  0
 25 26  1  0  0  0  0
  2 27  1  0  0  0  0
  3 28  1  0  0  0  0
  3 29  1  0  0  0  0
  4 30  1  0  0  0  0
  5 31  1  0  0  0  0
  5 32  1  0  0  0  0
  6 33  1  0  0  0  0
  6 34  1  0  0  0  0
  7 35  1  0  0  0  0
  7 36  1  0  0  0  0
  8 37  1  0  0  0  0
  8 38  1  0  0  0  0
  9 39  1  0  0  0  0
  9 40  1  0  0  0  0
 10 41  1  0  0  0  0
 11 42  1  0  0  0  0
 11 43  1  0  0  0  0
 12 44  1  0  0  0  0
 13 45  1  0  0  0  0
 24 46  1  0  0  0  0
 26 47  1  0  0  0  0
 26 48  1  0  0  0  0
 26 49  1  0  0  0  0
M  END
> <r_user_dG.exp>
-7.862

$$$$
22
  -OEChem-05192314073D
 Structure written by MMmdl.
 49 52  0     0  0  0  0  0  0999 V2000
    1.3901   29.1077    6.7935 C   0  0  0  0  0  0  0  0  0  0  0  0
   -1.6911   31.9130    8.0794 C   0  0  0  0  0  0  0  0  0  0  0  0
   -0.7437   26.3748    8.8319 C   0  0  0  0  0  0  0  0  0  0  0  0
   -1.3142   25.5567    9.9914 C   0  0  0  0  0  0  0  0  0  0  0  0
   -1.1214   24.0589    9.6854 C   0  0  0  0  0  0  0  0  0  0  0  0
   -1.5824   23.1795   10.8502 C   0  0  0  0  0  0  0  0  0  0  0  0
   -0.8551   23.5463   12.1491 C   0  0  0  0  0  0  0  0  0  0  0  0
   -1.0780   25.0277   12.4857 C   0  0  0  0  0  0  0  0  0  0  0  0
   -0.6321   25.9351   11.3273 C   0  0  0  0  0  0  0  0  0  0  0  0
    4.6903   25.7129    5.8380 C   0  0  0  0  0  0  0  0  0  0  0  0
    4.6667   25.1395    7.1233 C   0  0  0  0  0  0  0  0  0  0  0  0
    3.9496   25.7658    8.1576 C   0  0  0  0  0  0  0  0  0  0  0  0
    3.2460   26.9556    7.8985 C   0  0  0  0  0  0  0  0  0  0  0  0
    0.6302   28.2313    7.4508 N   0  0  0  0  0  0  0  0  0  0  0  0
   -0.4898   28.6252    8.0923 C   0  0  0  0  0  0  0  0  0  0  0  0
   -1.1796   27.7315    8.8832 O   0  0  0  0  0  0  0  0  0  0  0  0
   -0.8660   29.9818    8.0000 C   0  0  0  0  0  0  0  0  0  0  0  0
   -1.9251   30.7129    8.5212 N   0  0  0  0  0  0  0  0  0  0  0  0
   -0.5542   32.0464    7.3306 N   0  0  0  0  0  0  0  0  0  0  0  0
   -0.0249   30.7863    7.2610 C   0  0  0  0  0  0  0  0  0  0  0  0
    1.1172   30.4049    6.6113 N   0  0  0  0  0  0  0  0  0  0  0  0
    2.5827   28.6807    6.3360 N   0  0  0  0  0  0  0  0  0  0  0  0
    3.2365   27.5251    6.6032 C   0  0  0  0  0  0  0  0  0  0  0  0
    3.9871   26.9068    5.5819 C   0  0  0  0  0  0  0  0  0  0  0  0
    3.9347   25.0874    9.7381 S   0  0  0  0  0  0  0  0  0  0  0  0
    2.9329   26.1133   10.8427 C   0  0  0  0  0  0  0  0  0  0  0  0
   -2.3473   32.7449    8.2886 H   0  0  0  0  0  0  0  0  0  0  0  0
    0.3548   26.3504    8.8841 H   0  0  0  0  0  0  0  0  0  0  0  0
   -1.0756   25.9287    7.8828 H   0  0  0  0  0  0  0  0  0  0  0  0
   -2.3913   25.7635   10.0760 H   0  0  0  0  0  0  0  0  0  0  0  0
   -1.7056   23.7998    8.7901 H   0  0  0  0  0  0  0  0  0  0  0  0
   -0.0549   23.8683    9.4951 H   0  0  0  0  0  0  0  0  0  0  0  0
   -2.6643   23.3154   10.9950 H   0  0  0  0  0  0  0  0  0  0  0  0
   -1.3742   22.1268   10.6083 H   0  0  0  0  0  0  0  0  0  0  0  0
   -1.2434   22.9254   12.9699 H   0  0  0  0  0  0  0  0  0  0  0  0
    0.2221   23.3603   12.0266 H   0  0  0  0  0  0  0  0  0  0  0  0
   -2.1477   25.1942   12.6804 H   0  0  0  0  0  0  0  0  0  0  0  0
   -0.4976   25.2825   13.3847 H   0  0  0  0  0  0  0  0  0  0  0  0
    0.4575   25.8452   11.2064 H   0  0  0  0  0  0  0  0  0  0  0  0
   -0.8891   26.9759   11.5737 H   0  0  0  0  0  0  0  0  0  0  0  0
    5.7457   25.9094    5.5982 H   0  0  0  0  0  0  0  0  0  0  0  0
    4.2919   24.9561    5.1463 H   0  0  0  0  0  0  0  0  0  0  0  0
    4.2475   24.1285    7.0127 H   0  0  0  0  0  0  0  0  0  0  0  0
    5.7118   25.0684    7.4589 H   0  0  0  0  0  0  0  0  0  0  0  0
    2.7061   27.4407    8.6982 H   0  0  0  0  0  0  0  0  0  0  0  0
    4.0232   27.3508    4.5981 H   0  0  0  0  0  0  0  0  0  0  0  0
    2.9290   25.6723   11.8504 H   0  0  0  0  0  0  0  0  0  0  0  0
    3.3582   27.1268   10.8878 H   0  0  0  0  0  0  0  0  0  0  0  0
    1.9025   26.1647   10.4611 H   0  0  0  0  0  0  0  0  0  0  0  0
  1 14  1  0  0  0  0
  1 21  1  0  0  0  0
  1 22  2  0  0  0  0
  2 18  1  0  0  0  0
  2 19  2  0  0  0  0
  3  4  1  0  0  0  0
  3 16  1  0  0  0  0
  4  5  1  0  0  0  0
  4  9  1  0  0  0  0
  5  6  1  0  0  0  0
  6  7  1  0  0  0  0
  7  8  1  0  0  0  0
  8  9  1  0  0  0  0
 10 11  1  0  0  0  0
 10 24  1  0  0  0  0
 11 12  1  0  0  0  0
 12 13  2  0  0  0  0
 12 25  1  0  0  0  0
 13 23  1  0  0  0  0
 14 15  2  0  0  0  0
 15 16  1  0  0  0  0
 15 17  1  0  0  0  0
 17 18  2  0  0  0  0
 17 20  1  0  0  0  0
 19 20  1  0  0  0  0
 20 21  2  0  0  0  0
 22 23  1  0  0  0  0
 23 24  2  0  0  0  0
 25 26  1  0  0  0  0
  2 27  1  0  0  0  0
  3 28  1  0  0  0  0
  3 29  1  0  0  0  0
  4 30  1  0  0  0  0
  5 31  1  0  0  0  0
  5 32  1  0  0  0  0
  6 33  1  0  0  0  0
  6 34  1  0  0  0  0
  7 35  1  0  0  0  0
  7 36  1  0  0  0  0
  8 37  1  0  0  0  0
  8 38  1  0  0  0  0
  9 39  1  0  0  0  0
  9 40  1  0  0  0  0
 10 41  1  0  0  0  0
 10 42  1  0  0  0  0
 11 43  1  0  0  0  0
 11 44  1  0  0  0  0
 13 45  1  0  0  0  0
 24 46  1  0  0  0  0
 26 47  1  0  0  0  0
 26 48  1  0  0  0  0
 26 49  1  0  0  0  0
M  END
> <r_user_dG.exp>
-7.862

$$$$
22
  -OEChem-05192314073D
 Structure written by MMmdl.
 49 52  0     1  0  0  0  0  0999 V2000
    1.3901   29.1077    6.7935 C   0  0  0  0  0  0  0  0  0  0  0  0
   -1.6911   31.9130    8.0794 C   0  0  0  0  0  0  0  0  0  0  0  0
   -0.7437   26.3748    8.8319 C   0  0  0  0  0  0  0  0  0  0  0  0
   -1.3142   25.5567    9.9914 C   0  0  0  0  0  0  0  0  0  0  0  0
   -1.1214   24.0589    9.6854 C   0  0  0  0  0  0  0  0  0  0  0  0
   -1.5824   23.1795   10.8502 C   0  0  0  0  0  0  0  0  0  0  0  0
   -0.8551   23.5463   12.1491 C   0  0  0  0  0  0  0  0  0  0  0  0
   -1.0780   25.0277   12.4857 C   0  0  0  0  0  0  0  0  0  0  0  0
   -0.6321   25.9351   11.3273 C   0  0  0  0  0  0  0  0  0  0  0  0
    4.6903   25.7129    5.8380 C   0  0  0  0  0  0  0  0  0  0  0  0
    4.6667   25.1395    7.1233 C   0  0  0  0  0  0  0  0  0  0  0  0
    3.9496   25.7658    8.1576 C   0  0  0  0  0  0  0  0  0  0  0  0
    3.2460   26.9556    7.8985 C   0  0  0  0  0  0  0  0  0  0  0  0
    0.6302   28.2313    7.4508 N   0  0  0  0  0  0  0  0  0  0  0  0
   -0.4898   28.6252    8.0923 C   0  0  0  0  0  0  0  0  0  0  0  0
   -1.1796   27.7315    8.8832 O   0  0  0  0  0  0  0  0  0  0  0  0
   -0.8660   29.9818    8.0000 C   0  0  0  0  0  0  0  0  0  0  0  0
   -1.9251   30.7129    8.5212 N   0  0  0  0  0  0  0  0  0  0  0  0
   -0.5542   32.0464    7.3306 N   0  0  0  0  0  0  0  0  0  0  0  0
   -0.0249   30.7863    7.2610 C   0  0  0  0  0  0  0  0  0  0  0  0
    1.1172   30.4049    6.6113 N   0  0  0  0  0  0  0  0  0  0  0  0
    2.5827   28.6807    6.3360 N   0  0  0  0  0  0  0  0  0  0  0  0
    3.2365   27.5251    6.6032 C   0  0  3  0  0  0  0  0  0  0  0  0
    3.9871   26.9068    5.5819 C   0  0  0  0  0  0  0  0  0  0  0  0
    3.9347   25.0874    9.7381 S   0  0  0  0  0  0  0  0  0  0  0  0
    2.9329   26.1133   10.8427 C   0  0  0  0  0  0  0  0  0  0  0  0
   -2.3473   32.7449    8.2886 H   0  0  0  0  0  0  0  0  0  0  0  0
    0.3548   26.3504    8.8841 H   0  0  0  0  0  0  0  0  0  0  0  0
   -1.0756   25.9287    7.8828 H   0  0  0  0  0  0  0  0  0  0  0  0
   -2.3913   25.7635   10.0760 H   0  0  0  0  0  0  0  0  0  0  0  0
   -1.7056   23.7998    8.7901 H   0  0  0  0  0  0  0  0  0  0  0  0
   -0.0549   23.8683    9.4951 H   0  0  0  0  0  0  0  0  0  0  0  0
   -2.6643   23.3154   10.9950 H   0  0  0  0  0  0  0  0  0  0  0  0
   -1.3742   22.1268   10.6083 H   0  0  0  0  0  0  0  0  0  0  0  0
   -1.2434   22.9254   12.9699 H   0  0  0  0  0  0  0  0  0  0  0  0
    0.2221   23.3603   12.0266 H   0  0  0  0  0  0  0  0  0  0  0  0
   -2.1477   25.1942   12.6804 H   0  0  0  0  0  0  0  0  0  0  0  0
   -0.4976   25.2825   13.3847 H   0  0  0  0  0  0  0  0  0  0  0  0
    0.4575   25.8452   11.2064 H   0  0  0  0  0  0  0  0  0  0  0  0
   -0.8891   26.9759   11.5737 H   0  0  0  0  0  0  0  0  0  0  0  0
    5.2489   25.2365    5.0459 H   0  0  0  0  0  0  0  0  0  0  0  0
    5.1989   24.2194    7.3147 H   0  0  0  0  0  0  0  0  0  0  0  0
    2.7061   27.4407    8.6982 H   0  0  0  0  0  0  0  0  0  0  0  0
    2.3476   26.9370    6.3312 H   0  0  0  0  0  0  0  0  0  0  0  0
    4.7300   27.6448    5.2450 H   0  0  0  0  0  0  0  0  0  0  0  0
    3.2866   26.6910    4.7617 H   0  0  0  0  0  0  0  0  0  0  0  0
    2.9290   25.6723   11.8504 H   0  0  0  0  0  0  0  0  0  0  0  0
    3.3582   27.1268   10.8878 H   0  0  0  0  0  0  0  0  0  0  0  0
    1.9025   26.1647   10.4611 H   0  0  0  0  0  0  0  0  0  0  0  0
  1 14  1  0  0  0  0
  1 21  1  0  0  0  0
  1 22  2  0  0  0  0
  2 18  1  0  0  0  0
  2 19  2  0  0  0  0
  3  4  1  0  0  0  0
  3 16  1  0  0  0  0
  4  5  1  0  0  0  0
  4  9  1  0  0  0  0
  5  6  1  0  0  0  0
  6  7  1  0  0  0  0
  7  8  1  0  0  0  0
  8  9  1  0  0  0  0
 10 11  2  0  0  0  0
 10 24  1  0  0  0  0
 11 12  1  0  0  0  0
 12 13  2  0  0  0  0
 12 25  1  0  0  0  0
 13 23  1  0  0  0  0
 14 15  2  0  0  0  0
 15 16  1  0  0  0  0
 15 17  1  0  0  0  0
 17 18  2  0  0  0  0
 17 20  1  0  0  0  0
 19 20  1  0  0  0  0
 20 21  2  0  0  0  0
 22 23  1  0  0  0  0
 23 24  1  0  0  0  0
 25 26  1  0  0  0  0
  2 27  1  0  0  0  0
  3 28  1  0  0  0  0
  3 29  1  0  0  0  0
  4 30  1  0  0  0  0
  5 31  1  0  0  0  0
  5 32  1  0  0  0  0
  6 33  1  0  0  0  0
  6 34  1  0  0  0  0
  7 35  1  0  0  0  0
  7 36  1  0  0  0  0
  8 37  1  0  0  0  0
  8 38  1  0  0  0  0
  9 39  1  0  0  0  0
  9 40  1  0  0  0  0
 10 41  1  0  0  0  0
 11 42  1  0  0  0  0
 13 43  1  0  0  0  0
 23 44  1  0  0  0  0
 24 45  1  0  0  0  0
 24 46  1  0  0  0  0
 26 47  1  0  0  0  0
 26 48  1  0  0  0  0
 26 49  1  0  0  0  0
M  END
> <r_user_dG.exp>
-7.862

$$$$
22
  -OEChem-05192314073D
 Structure written by MMmdl.
 49 52  0     1  0  0  0  0  0999 V2000
    1.3901   29.1077    6.7935 C   0  0  0  0  0  0  0  0  0  0  0  0
   -1.6911   31.9130    8.0794 C   0  0  0  0  0  0  0  0  0  0  0  0
   -0.7437   26.3748    8.8319 C   0  0  0  0  0  0  0  0  0  0  0  0
   -1.3142   25.5567    9.9914 C   0  0  0  0  0  0  0  0  0  0  0  0
   -1.1214   24.0589    9.6854 C   0  0  0  0  0  0  0  0  0  0  0  0
   -1.5824   23.1795   10.8502 C   0  0  0  0  0  0  0  0  0  0  0  0
   -0.8551   23.5463   12.1491 C   0  0  0  0  0  0  0  0  0  0  0  0
   -1.0780   25.0277   12.4857 C   0  0  0  0  0  0  0  0  0  0  0  0
   -0.6321   25.9351   11.3273 C   0  0  0  0  0  0  0  0  0  0  0  0
    4.6903   25.7129    5.8380 C   0  0  0  0  0  0  0  0  0  0  0  0
    4.6667   25.1395    7.1233 C   0  0  0  0  0  0  0  0  0  0  0  0
    3.9496   25.7658    8.1576 C   0  0  0  0  0  0  0  0  0  0  0  0
    3.2460   26.9556    7.8985 C   0  0  0  0  0  0  0  0  0  0  0  0
    0.6302   28.2313    7.4508 N   0  0  0  0  0  0  0  0  0  0  0  0
   -0.4898   28.6252    8.0923 C   0  0  0  0  0  0  0  0  0  0  0  0
   -1.1796   27.7315    8.8832 O   0  0  0  0  0  0  0  0  0  0  0  0
   -0.8660   29.9818    8.0000 C   0  0  3  0  0  0  0  0  0  0  0  0
   -1.9251   30.7129    8.5212 N   0  0  0  0  0  0  0  0  0  0  0  0
   -0.5542   32.0464    7.3306 N   0  0  0  0  0  0  0  0  0  0  0  0
   -0.0249   30.7863    7.2610 C   0  0  0  0  0  0  0  0  0  0  0  0
    1.1172   30.4049    6.6113 N   0  0  0  0  0  0  0  0  0  0  0  0
    2.5827   28.6807    6.3360 N   0  0  0  0  0  0  0  0  0  0  0  0
    3.2365   27.5251    6.6032 C   0  0  0  0  0  0  0  0  0  0  0  0
    3.9871   26.9068    5.5819 C   0  0  0  0  0  0  0  0  0  0  0  0
    3.9347   25.0874    9.7381 S   0  0  0  0  0  0  0  0  0  0  0  0
    2.9329   26.1133   10.8427 C   0  0  0  0  0  0  0  0  0  0  0  0
   -2.3473   32.7449    8.2886 H   0  0  0  0  0  0  0  0  0  0  0  0
    0.3548   26.3504    8.8841 H   0  0  0  0  0  0  0  0  0  0  0  0
   -1.0756   25.9287    7.8828 H   0  0  0  0  0  0  0  0  0  0  0  0
   -2.3913   25.7635   10.0760 H   0  0  0  0  0  0  0  0  0  0  0  0
   -1.7056   23.7998    8.7901 H   0  0  0  0  0  0  0  0  0  0  0  0
   -0.0549   23.8683    9.4951 H   0  0  0  0  0  0  0  0  0  0  0  0
   -2.6643   23.3154   10.9950 H   0  0  0  0  0  0  0  0  0  0  0  0
   -1.3742   22.1268   10.6083 H   0  0  0  0  0  0  0  0  0  0  0  0
   -1.2434   22.9254   12.9699 H   0  0  0  0  0  0  0  0  0  0  0  0
    0.2221   23.3603   12.0266 H   0  0  0  0  0  0  0  0  0  0  0  0
   -2.1477   25.1942   12.6804 H   0  0  0  0  0  0  0  0  0  0  0  0
   -0.4976   25.2825   13.3847 H   0  0  0  0  0  0  0  0  0  0  0  0
    0.4575   25.8452   11.2064 H   0  0  0  0  0  0  0  0  0  0  0  0
   -0.8891   26.9759   11.5737 H   0  0  0  0  0  0  0  0  0  0  0  0
    5.2489   25.2365    5.0459 H   0  0  0  0  0  0  0  0  0  0  0  0
    5.1989   24.2194    7.3147 H   0  0  0  0  0  0  0  0  0  0  0  0
    2.7061   27.4407    8.6982 H   0  0  0  0  0  0  0  0  0  0  0  0
   -1.4557   29.7617    7.0979 H   0  0  0  0  0  0  0  0  0  0  0  0
    4.7300   27.6448    5.2450 H   0  0  0  0  0  0  0  0  0  0  0  0
    3.2866   26.6910    4.7617 H   0  0  0  0  0  0  0  0  0  0  0  0
    2.9290   25.6723   11.8504 H   0  0  0  0  0  0  0  0  0  0  0  0
    3.3582   27.1268   10.8878 H   0  0  0  0  0  0  0  0  0  0  0  0
    1.9025   26.1647   10.4611 H   0  0  0  0  0  0  0  0  0  0  0  0
  1 14  1  0  0  0  0
  1 21  2  0  0  0  0
  1 22  1  0  0  0  0
  2 18  2  0  0  0  0
  2 19  1  0  0  0  0
  3  4  1  0  0  0  0
  3 16  1  0  0  0  0
  4  5  1  0  0  0  0
  4  9  1  0  0  0  0
  5  6  1  0  0  0  0
  6  7  1  0  0  0  0
  7  8  1  0  0  0  0
  8  9  1  0  0  0  0
 10 11  2  0  0  0  0
 10 24  1  0  0  0  0
 11 12  1  0  0  0  0
 12 13  2  0  0  0  0
 12 25  1  0  0  0  0
 13 23  1  0  0  0  0
 14 15  2  0  0  0  0
 15 16  1  0  0  0  0
 15 17  1  0  0  0  0
 17 18  1  0  0  0  0
 17 20  1  0  0  0  0
 19 20  2  0  0  0  0
 20 21  1  0  0  0  0
 22 23  2  3  0  0  0
 23 24  1  0  0  0  0
 25 26  1  0  0  0  0
  2 27  1  0  0  0  0
  3 28  1  0  0  0  0
  3 29  1  0  0  0  0
  4 30  1  0  0  0  0
  5 31  1  0  0  0  0
  5 32  1  0  0  0  0
  6 33  1  0  0  0  0
  6 34  1  0  0  0  0
  7 35  1  0  0  0  0
  7 36  1  0  0  0  0
  8 37  1  0  0  0  0
  8 38  1  0  0  0  0
  9 39  1  0  0  0  0
  9 40  1  0  0  0  0
 10 41  1  0  0  0  0
 11 42  1  0  0  0  0
 13 43  1  0  0  0  0
 17 44  1  0  0  0  0
 24 45  1  0  0  0  0
 24 46  1  0  0  0  0
 26 47  1  0  0  0  0
 26 48  1  0  0  0  0
 26 49  1  0  0  0  0
M  END
> <r_user_dG.exp>
-7.862

$$$$
22
  -OEChem-05192314073D
 Structure written by MMmdl.
 49 52  0     1  0  0  0  0  0999 V2000
    1.3901   29.1077    6.7935 C   0  0  0  0  0  0  0  0  0  0  0  0
   -1.6911   31.9130    8.0794 C   0  0  0  0  0  0  0  0  0  0  0  0
   -0.7437   26.3748    8.8319 C   0  0  0  0  0  0  0  0  0  0  0  0
   -1.3142   25.5567    9.9914 C   0  0  0  0  0  0  0  0  0  0  0  0
   -1.1214   24.0589    9.6854 C   0  0  0  0  0  0  0  0  0  0  0  0
   -1.5824   23.1795   10.8502 C   0  0  0  0  0  0  0  0  0  0  0  0
   -0.8551   23.5463   12.1491 C   0  0  0  0  0  0  0  0  0  0  0  0
   -1.0780   25.0277   12.4857 C   0  0  0  0  0  0  0  0  0  0  0  0
   -0.6321   25.9351   11.3273 C   0  0  0  0  0  0  0  0  0  0  0  0
    4.6903   25.7129    5.8380 C   0  0  0  0  0  0  0  0  0  0  0  0
    4.6667   25.1395    7.1233 C   0  0  0  0  0  0  0  0  0  0  0  0
    3.9496   25.7658    8.1576 C   0  0  0  0  0  0  0  0  0  0  0  0
    3.2460   26.9556    7.8985 C   0  0  0  0  0  0  0  0  0  0  0  0
    0.6302   28.2313    7.4508 N   0  0  0  0  0  0  0  0  0  0  0  0
   -0.4898   28.6252    8.0923 C   0  0  0  0  0  0  0  0  0  0  0  0
   -1.1796   27.7315    8.8832 O   0  0  0  0  0  0  0  0  0  0  0  0
   -0.8660   29.9818    8.0000 C   0  0  0  0  0  0  0  0  0  0  0  0
   -1.9251   30.7129    8.5212 N   0  0  0  0  0  0  0  0  0  0  0  0
   -0.5542   32.0464    7.3306 N   0  0  0  0  0  0  0  0  0  0  0  0
   -0.0249   30.7863    7.2610 C   0  0  3  0  0  0  0  0  0  0  0  0
    1.1172   30.4049    6.6113 N   0  0  0  0  0  0  0  0  0  0  0  0
    2.5827   28.6807    6.3360 N   0  0  0  0  0  0  0  0  0  0  0  0
    3.2365   27.5251    6.6032 C   0  0  0  0  0  0  0  0  0  0  0  0
    3.9871   26.9068    5.5819 C   0  0  0  0  0  0  0  0  0  0  0  0
    3.9347   25.0874    9.7381 S   0  0  0  0  0  0  0  0  0  0  0  0
    2.9329   26.1133   10.8427 C   0  0  0  0  0  0  0  0  0  0  0  0
   -2.3473   32.7449    8.2886 H   0  0  0  0  0  0  0  0  0  0  0  0
    0.3548   26.3504    8.8841 H   0  0  0  0  0  0  0  0  0  0  0  0
   -1.0756   25.9287    7.8828 H   0  0  0  0  0  0  0  0  0  0  0  0
   -2.3913   25.7635   10.0760 H   0  0  0  0  0  0  0  0  0  0  0  0
   -1.7056   23.7998    8.7901 H   0  0  0  0  0  0  0  0  0  0  0  0
   -0.0549   23.8683    9.4951 H   0  0  0  0  0  0  0  0  0  0  0  0
   -2.6643   23.3154   10.9950 H   0  0  0  0  0  0  0  0  0  0  0  0
   -1.3742   22.1268   10.6083 H   0  0  0  0  0  0  0  0  0  0  0  0
   -1.2434   22.9254   12.9699 H   0  0  0  0  0  0  0  0  0  0  0  0
    0.2221   23.3603   12.0266 H   0  0  0  0  0  0  0  0  0  0  0  0
   -2.1477   25.1942   12.6804 H   0  0  0  0  0  0  0  0  0  0  0  0
   -0.4976   25.2825   13.3847 H   0  0  0  0  0  0  0  0  0  0  0  0
    0.4575   25.8452   11.2064 H   0  0  0  0  0  0  0  0  0  0  0  0
   -0.8891   26.9759   11.5737 H   0  0  0  0  0  0  0  0  0  0  0  0
    5.2489   25.2365    5.0459 H   0  0  0  0  0  0  0  0  0  0  0  0
    5.1989   24.2194    7.3147 H   0  0  0  0  0  0  0  0  0  0  0  0
    2.7061   27.4407    8.6982 H   0  0  0  0  0  0  0  0  0  0  0  0
   -0.6153   30.5819    6.3556 H   0  0  0  0  0  0  0  0  0  0  0  0
    4.7300   27.6448    5.2450 H   0  0  0  0  0  0  0  0  0  0  0  0
    3.2866   26.6910    4.7617 H   0  0  0  0  0  0  0  0  0  0  0  0
    2.9290   25.6723   11.8504 H   0  0  0  0  0  0  0  0  0  0  0  0
    3.3582   27.1268   10.8878 H   0  0  0  0  0  0  0  0  0  0  0  0
    1.9025   26.1647   10.4611 H   0  0  0  0  0  0  0  0  0  0  0  0
  1 14  1  0  0  0  0
  1 21  2  0  0  0  0
  1 22  1  0  0  0  0
  2 18  1  0  0  0  0
  2 19  2  0  0  0  0
  3  4  1  0  0  0  0
  3 16  1  0  0  0  0
  4  5  1  0  0  0  0
  4  9  1  0  0  0  0
  5  6  1  0  0  0  0
  6  7  1  0  0  0  0
  7  8  1  0  0  0  0
  8  9  1  0  0  0  0
 10 11  2  0  0  0  0
 10 24  1  0  0  0  0
 11 12  1  0  0  0  0
 12 13  2  0  0  0  0
 12 25  1  0  0  0  0
 13 23  1  0  0  0  0
 14 15  2  0  0  0  0
 15 16  1  0  0  0  0
 15 17  1  0  0  0  0
 17 18  2  0  0  0  0
 17 20  1  0  0  0  0
 19 20  1  0  0  0  0
 20 21  1  0  0  0  0
 22 23  2  3  0  0  0
 23 24  1  0  0  0  0
 25 26  1  0  0  0  0
  2 27  1  0  0  0  0
  3 28  1  0  0  0  0
  3 29  1  0  0  0  0
  4 30  1  0  0  0  0
  5 31  1  0  0  0  0
  5 32  1  0  0  0  0
  6 33  1  0  0  0  0
  6 34  1  0  0  0  0
  7 35  1  0  0  0  0
  7 36  1  0  0  0  0
  8 37  1  0  0  0  0
  8 38  1  0  0  0  0
  9 39  1  0  0  0  0
  9 40  1  0  0  0  0
 10 41  1  0  0  0  0
 11 42  1  0  0  0  0
 13 43  1  0  0  0  0
 20 44  1  0  0  0  0
 24 45  1  0  0  0  0
 24 46  1  0  0  0  0
 26 47  1  0  0  0  0
 26 48  1  0  0  0  0
 26 49  1  0  0  0  0
M  END
> <r_user_dG.exp>
-7.862

$$$$
22
  -OEChem-05192314073D
 Structure written by MMmdl.
 49 52  0     1  0  0  0  0  0999 V2000
    1.3901   29.1077    6.7935 C   0  0  0  0  0  0  0  0  0  0  0  0
   -1.6911   31.9130    8.0794 C   0  0  0  0  0  0  0  0  0  0  0  0
   -0.7437   26.3748    8.8319 C   0  0  0  0  0  0  0  0  0  0  0  0
   -1.3142   25.5567    9.9914 C   0  0  0  0  0  0  0  0  0  0  0  0
   -1.1214   24.0589    9.6854 C   0  0  0  0  0  0  0  0  0  0  0  0
   -1.5824   23.1795   10.8502 C   0  0  0  0  0  0  0  0  0  0  0  0
   -0.8551   23.5463   12.1491 C   0  0  0  0  0  0  0  0  0  0  0  0
   -1.0780   25.0277   12.4857 C   0  0  0  0  0  0  0  0  0  0  0  0
   -0.6321   25.9351   11.3273 C   0  0  0  0  0  0  0  0  0  0  0  0
    4.6903   25.7129    5.8380 C   0  0  0  0  0  0  0  0  0  0  0  0
    4.6667   25.1395    7.1233 C   0  0  0  0  0  0  0  0  0  0  0  0
    3.9496   25.7658    8.1576 C   0  0  0  0  0  0  0  0  0  0  0  0
    3.2460   26.9556    7.8985 C   0  0  0  0  0  0  0  0  0  0  0  0
    0.6302   28.2313    7.4508 N   0  0  0  0  0  0  0  0  0  0  0  0
   -0.4898   28.6252    8.0923 C   0  0  3  0  0  0  0  0  0  0  0  0
   -1.1796   27.7315    8.8832 O   0  0  0  0  0  0  0  0  0  0  0  0
   -0.8660   29.9818    8.0000 C   0  0  0  0  0  0  0  0  0  0  0  0
   -1.9251   30.7129    8.5212 N   0  0  0  0  0  0  0  0  0  0  0  0
   -0.5542   32.0464    7.3306 N   0  0  0  0  0  0  0  0  0  0  0  0
   -0.0249   30.7863    7.2610 C   0  0  0  0  0  0  0  0  0  0  0  0
    1.1172   30.4049    6.6113 N   0  0  0  0  0  0  0  0  0  0  0  0
    2.5827   28.6807    6.3360 N   0  0  0  0  0  0  0  0  0  0  0  0
    3.2365   27.5251    6.6032 C   0  0  0  0  0  0  0  0  0  0  0  0
    3.9871   26.9068    5.5819 C   0  0  0  0  0  0  0  0  0  0  0  0
    3.9347   25.0874    9.7381 S   0  0  0  0  0  0  0  0  0  0  0  0
    2.9329   26.1133   10.8427 C   0  0  0  0  0  0  0  0  0  0  0  0
   -2.3473   32.7449    8.2886 H   0  0  0  0  0  0  0  0  0  0  0  0
    0.3548   26.3504    8.8841 H   0  0  0  0  0  0  0  0  0  0  0  0
   -1.0756   25.9287    7.8828 H   0  0  0  0  0  0  0  0  0  0  0  0
   -2.3913   25.7635   10.0760 H   0  0  0  0  0  0  0  0  0  0  0  0
   -1.7056   23.7998    8.7901 H   0  0  0  0  0  0  0  0  0  0  0  0
   -0.0549   23.8683    9.4951 H   0  0  0  0  0  0  0  0  0  0  0  0
   -2.6643   23.3154   10.9950 H   0  0  0  0  0  0  0  0  0  0  0  0
   -1.3742   22.1268   10.6083 H   0  0  0  0  0  0  0  0  0  0  0  0
   -1.2434   22.9254   12.9699 H   0  0  0  0  0  0  0  0  0  0  0  0
    0.2221   23.3603   12.0266 H   0  0  0  0  0  0  0  0  0  0  0  0
   -2.1477   25.1942   12.6804 H   0  0  0  0  0  0  0  0  0  0  0  0
   -0.4976   25.2825   13.3847 H   0  0  0  0  0  0  0  0  0  0  0  0
    0.4575   25.8452   11.2064 H   0  0  0  0  0  0  0  0  0  0  0  0
   -0.8891   26.9759   11.5737 H   0  0  0  0  0  0  0  0  0  0  0  0
    5.2489   25.2365    5.0459 H   0  0  0  0  0  0  0  0  0  0  0  0
    5.1989   24.2194    7.3147 H   0  0  0  0  0  0  0  0  0  0  0  0
    2.7061   27.4407    8.6982 H   0  0  0  0  0  0  0  0  0  0  0  0
   -1.1094   28.3692    7.2202 H   0  0  0  0  0  0  0  0  0  0  0  0
    4.7300   27.6448    5.2450 H   0  0  0  0  0  0  0  0  0  0  0  0
    3.2866   26.6910    4.7617 H   0  0  0  0  0  0  0  0  0  0  0  0
    2.9290   25.6723   11.8504 H   0  0  0  0  0  0  0  0  0  0  0  0
    3.3582   27.1268   10.8878 H   0  0  0  0  0  0  0  0  0  0  0  0
    1.9025   26.1647   10.4611 H   0  0  0  0  0  0  0  0  0  0  0  0
  1 14  2  0  0  0  0
  1 21  1  0  0  0  0
  1 22  1  0  0  0  0
  2 18  1  0  0  0  0
  2 19  2  0  0  0  0
  3  4  1  0  0  0  0
  3 16  1  0  0  0  0
  4  5  1  0  0  0  0
  4  9  1  0  0  0  0
  5  6  1  0  0  0  0
  6  7  1  0  0  0  0
  7  8  1  0  0  0  0
  8  9  1  0  0  0  0
 10 11  2  0  0  0  0
 10 24  1  0  0  0  0
 11 12  1  0  0  0  0
 12 13  2  0  0  0  0
 12 25  1  0  0  0  0
 13 23  1  0  0  0  0
 14 15  1  0  0  0  0
 15 16  1  0  0  0  0
 15 17  1  0  0  0  0
 17 18  2  0  0  0  0
 17 20  1  0  0  0  0
 19 20  1  0  0  0  0
 20 21  2  0  0  0  0
 22 23  2  3  0  0  0
 23 24  1  0  0  0  0
 25 26  1  0  0  0  0
  2 27  1  0  0  0  0
  3 28  1  0  0  0  0
  3 29  1  0  0  0  0
  4 30  1  0  0  0  0
  5 31  1  0  0  0  0
  5 32  1  0  0  0  0
  6 33  1  0  0  0  0
  6 34  1  0  0  0  0
  7 35  1  0  0  0  0
  7 36  1  0  0  0  0
  8 37  1  0  0  0  0
  8 38  1  0  0  0  0
  9 39  1  0  0  0  0
  9 40  1  0  0  0  0
 10 41  1  0  0  0  0
 11 42  1  0  0  0  0
 13 43  1  0  0  0  0
 15 44  1  0  0  0  0
 24 45  1  0  0  0  0
 24 46  1  0  0  0  0
 26 47  1  0  0  0  0
 26 48  1  0  0  0  0
 26 49  1  0  0  0  0
M  END
> <r_user_dG.exp>
-7.862

$$$$
22
  -OEChem-05192314073D
 Structure written by MMmdl.
 49 52  0     1  0  0  0  0  0999 V2000
    1.3901   29.1077    6.7935 C   0  0  0  0  0  0  0  0  0  0  0  0
   -1.6911   31.9130    8.0794 C   0  0  0  0  0  0  0  0  0  0  0  0
   -0.7437   26.3748    8.8319 C   0  0  0  0  0  0  0  0  0  0  0  0
   -1.3142   25.5567    9.9914 C   0  0  0  0  0  0  0  0  0  0  0  0
   -1.1214   24.0589    9.6854 C   0  0  0  0  0  0  0  0  0  0  0  0
   -1.5824   23.1795   10.8502 C   0  0  0  0  0  0  0  0  0  0  0  0
   -0.8551   23.5463   12.1491 C   0  0  0  0  0  0  0  0  0  0  0  0
   -1.0780   25.0277   12.4857 C   0  0  0  0  0  0  0  0  0  0  0  0
   -0.6321   25.9351   11.3273 C   0  0  0  0  0  0  0  0  0  0  0  0
    4.6903   25.7129    5.8380 C   0  0  0  0  0  0  0  0  0  0  0  0
    4.6667   25.1395    7.1233 C   0  0  0  0  0  0  0  0  0  0  0  0
    3.9496   25.7658    8.1576 C   0  0  3  0  0  0  0  0  0  0  0  0
    3.2460   26.9556    7.8985 C   0  0  0  0  0  0  0  0  0  0  0  0
    0.6302   28.2313    7.4508 N   0  0  0  0  0  0  0  0  0  0  0  0
   -0.4898   28.6252    8.0923 C   0  0  0  0  0  0  0  0  0  0  0  0
   -1.1796   27.7315    8.8832 O   0  0  0  0  0  0  0  0  0  0  0  0
   -0.8660   29.9818    8.0000 C   0  0  0  0  0  0  0  0  0  0  0  0
   -1.9251   30.7129    8.5212 N   0  0  0  0  0  0  0  0  0  0  0  0
   -0.5542   32.0464    7.3306 N   0  0  0  0  0  0  0  0  0  0  0  0
   -0.0249   30.7863    7.2610 C   0  0  0  0  0  0  0  0  0  0  0  0
    1.1172   30.4049    6.6113 N   0  0  0  0  0  0  0  0  0  0  0  0
    2.5827   28.6807    6.3360 N   0  0  0  0  0  0  0  0  0  0  0  0
    3.2365   27.5251    6.6032 C   0  0  0  0  0  0  0  0  0  0  0  0
    3.9871   26.9068    5.5819 C   0  0  0  0  0  0  0  0  0  0  0  0
    3.9347   25.0874    9.7381 S   0  0  0  0  0  0  0  0  0  0  0  0
    2.9329   26.1133   10.8427 C   0  0  0  0  0  0  0  0  0  0  0  0
   -2.3473   32.7449    8.2886 H   0  0  0  0  0  0  0  0  0  0  0  0
    0.3548   26.3504    8.8841 H   0  0  0  0  0  0  0  0  0  0  0  0
   -1.0756   25.9287    7.8828 H   0  0  0  0  0  0  0  0  0  0  0  0
   -2.3913   25.7635   10.0760 H   0  0  0  0  0  0  0  0  0  0  0  0
   -1.7056   23.7998    8.7901 H   0  0  0  0  0  0  0  0  0  0  0  0
   -0.0549   23.8683    9.4951 H   0  0  0  0  0  0  0  0  0  0  0  0
   -2.6643   23.3154   10.9950 H   0  0  0  0  0  0  0  0  0  0  0  0
   -1.3742   22.1268   10.6083 H   0  0  0  0  0  0  0  0  0  0  0  0
   -1.2434   22.9254   12.9699 H   0  0  0  0  0  0  0  0  0  0  0  0
    0.2221   23.3603   12.0266 H   0  0  0  0  0  0  0  0  0  0  0  0
   -2.1477   25.1942   12.6804 H   0  0  0  0  0  0  0  0  0  0  0  0
   -0.4976   25.2825   13.3847 H   0  0  0  0  0  0  0  0  0  0  0  0
    0.4575   25.8452   11.2064 H   0  0  0  0  0  0  0  0  0  0  0  0
   -0.8891   26.9759   11.5737 H   0  0  0  0  0  0  0  0  0  0  0  0
    5.2489   25.2365    5.0459 H   0  0  0  0  0  0  0  0  0  0  0  0
    5.1989   24.2194    7.3147 H   0  0  0  0  0  0  0  0  0  0  0  0
    3.0567   25.1790    7.8960 H   0  0  0  0  0  0  0  0  0  0  0  0
    2.7061   27.4407    8.6982 H   0  0  0  0  0  0  0  0  0  0  0  0
    4.7300   27.6448    5.2450 H   0  0  0  0  0  0  0  0  0  0  0  0
    3.2866   26.6910    4.7617 H   0  0  0  0  0  0  0  0  0  0  0  0
    2.9290   25.6723   11.8504 H   0  0  0  0  0  0  0  0  0  0  0  0
    3.3582   27.1268   10.8878 H   0  0  0  0  0  0  0  0  0  0  0  0
    1.9025   26.1647   10.4611 H   0  0  0  0  0  0  0  0  0  0  0  0
  1 14  1  0  0  0  0
  1 21  1  0  0  0  0
  1 22  2  0  0  0  0
  2 18  1  0  0  0  0
  2 19  2  0  0  0  0
  3  4  1  0  0  0  0
  3 16  1  0  0  0  0
  4  5  1  0  0  0  0
  4  9  1  0  0  0  0
  5  6  1  0  0  0  0
  6  7  1  0  0  0  0
  7  8  1  0  0  0  0
  8  9  1  0  0  0  0
 10 11  2  0  0  0  0
 10 24  1  0  0  0  0
 11 12  1  0  0  0  0
 12 13  1  0  0  0  0
 12 25  1  0  0  0  0
 13 23  2  0  0  0  0
 14 15  2  0  0  0  0
 15 16  1  0  0  0  0
 15 17  1  0  0  0  0
 17 18  2  0  0  0  0
 17 20  1  0  0  0  0
 19 20  1  0  0  0  0
 20 21  2  0  0  0  0
 22 23  1  0  0  0  0
 23 24  1  0  0  0  0
 25 26  1  0  0  0  0
  2 27  1  0  0  0  0
  3 28  1  0  0  0  0
  3 29  1  0  0  0  0
  4 30  1  0  0  0  0
  5 31  1  0  0  0  0
  5 32  1  0  0  0  0
  6 33  1  0  0  0  0
  6 34  1  0  0  0  0
  7 35  1  0  0  0  0
  7 36  1  0  0  0  0
  8 37  1  0  0  0  0
  8 38  1  0  0  0  0
  9 39  1  0  0  0  0
  9 40  1  0  0  0  0
 10 41  1  0  0  0  0
 11 42  1  0  0  0  0
 12 43  1  0  0  0  0
 13 44  1  0  0  0  0
 24 45  1  0  0  0  0
 24 46  1  0  0  0  0
 26 47  1  0  0  0  0
 26 48  1  0  0  0  0
 26 49  1  0  0  0  0
M  END
> <r_user_dG.exp>
-7.862

$$$$
22
  -OEChem-05192314073D
 Structure written by MMmdl.
 49 52  0     0  0  0  0  0  0999 V2000
    1.3901   29.1077    6.7935 C   0  0  0  0  0  0  0  0  0  0  0  0
   -1.6911   31.9130    8.0794 C   0  0  0  0  0  0  0  0  0  0  0  0
   -0.7437   26.3748    8.8319 C   0  0  0  0  0  0  0  0  0  0  0  0
   -1.3142   25.5567    9.9914 C   0  0  0  0  0  0  0  0  0  0  0  0
   -1.1214   24.0589    9.6854 C   0  0  0  0  0  0  0  0  0  0  0  0
   -1.5824   23.1795   10.8502 C   0  0  0  0  0  0  0  0  0  0  0  0
   -0.8551   23.5463   12.1491 C   0  0  0  0  0  0  0  0  0  0  0  0
   -1.0780   25.0277   12.4857 C   0  0  0  0  0  0  0  0  0  0  0  0
   -0.6321   25.9351   11.3273 C   0  0  0  0  0  0  0  0  0  0  0  0
    4.6903   25.7129    5.8380 C   0  0  0  0  0  0  0  0  0  0  0  0
    4.6667   25.1395    7.1233 C   0  0  0  0  0  0  0  0  0  0  0  0
    3.9496   25.7658    8.1576 C   0  0  0  0  0  0  0  0  0  0  0  0
    3.2460   26.9556    7.8985 C   0  0  0  0  0  0  0  0  0  0  0  0
    0.6302   28.2313    7.4508 N   0  0  0  0  0  0  0  0  0  0  0  0
   -0.4898   28.6252    8.0923 C   0  0  0  0  0  0  0  0  0  0  0  0
   -1.1796   27.7315    8.8832 O   0  0  0  0  0  0  0  0  0  0  0  0
   -0.8660   29.9818    8.0000 C   0  0  0  0  0  0  0  0  0  0  0  0
   -1.9251   30.7129    8.5212 N   0  0  0  0  0  0  0  0  0  0  0  0
   -0.5542   32.0464    7.3306 N   0  0  0  0  0  0  0  0  0  0  0  0
   -0.0249   30.7863    7.2610 C   0  0  0  0  0  0  0  0  0  0  0  0
    1.1172   30.4049    6.6113 N   0  0  0  0  0  0  0  0  0  0  0  0
    2.5827   28.6807    6.3360 N   0  0  0  0  0  0  0  0  0  0  0  0
    3.2365   27.5251    6.6032 C   0  0  0  0  0  0  0  0  0  0  0  0
    3.9871   26.9068    5.5819 C   0  0  0  0  0  0  0  0  0  0  0  0
    3.9347   25.0874    9.7381 S   0  0  0  0  0  0  0  0  0  0  0  0
    2.9329   26.1133   10.8427 C   0  0  0  0  0  0  0  0  0  0  0  0
   -2.3473   32.7449    8.2886 H   0  0  0  0  0  0  0  0  0  0  0  0
    0.3548   26.3504    8.8841 H   0  0  0  0  0  0  0  0  0  0  0  0
   -1.0756   25.9287    7.8828 H   0  0  0  0  0  0  0  0  0  0  0  0
   -2.3913   25.7635   10.0760 H   0  0  0  0  0  0  0  0  0  0  0  0
   -1.7056   23.7998    8.7901 H   0  0  0  0  0  0  0  0  0  0  0  0
   -0.0549   23.8683    9.4951 H   0  0  0  0  0  0  0  0  0  0  0  0
   -2.6643   23.3154   10.9950 H   0  0  0  0  0  0  0  0  0  0  0  0
   -1.3742   22.1268   10.6083 H   0  0  0  0  0  0  0  0  0  0  0  0
   -1.2434   22.9254   12.9699 H   0  0  0  0  0  0  0  0  0  0  0  0
    0.2221   23.3603   12.0266 H   0  0  0  0  0  0  0  0  0  0  0  0
   -2.1477   25.1942   12.6804 H   0  0  0  0  0  0  0  0  0  0  0  0
   -0.4976   25.2825   13.3847 H   0  0  0  0  0  0  0  0  0  0  0  0
    0.4575   25.8452   11.2064 H   0  0  0  0  0  0  0  0  0  0  0  0
   -0.8891   26.9759   11.5737 H   0  0  0  0  0  0  0  0  0  0  0  0
    5.7457   25.9094    5.5982 H   0  0  0  0  0  0  0  0  0  0  0  0
    4.2919   24.9561    5.1463 H   0  0  0  0  0  0  0  0  0  0  0  0
    5.1989   24.2194    7.3147 H   0  0  0  0  0  0  0  0  0  0  0  0
    2.7061   27.4407    8.6982 H   0  0  0  0  0  0  0  0  0  0  0  0
    4.7300   27.6448    5.2450 H   0  0  0  0  0  0  0  0  0  0  0  0
    3.2866   26.6910    4.7617 H   0  0  0  0  0  0  0  0  0  0  0  0
    2.9290   25.6723   11.8504 H   0  0  0  0  0  0  0  0  0  0  0  0
    3.3582   27.1268   10.8878 H   0  0  0  0  0  0  0  0  0  0  0  0
    1.9025   26.1647   10.4611 H   0  0  0  0  0  0  0  0  0  0  0  0
  1 14  1  0  0  0  0
  1 21  1  0  0  0  0
  1 22  2  0  0  0  0
  2 18  1  0  0  0  0
  2 19  2  0  0  0  0
  3  4  1  0  0  0  0
  3 16  1  0  0  0  0
  4  5  1  0  0  0  0
  4  9  1  0  0  0  0
  5  6  1  0  0  0  0
  6  7  1  0  0  0  0
  7  8  1  0  0  0  0
  8  9  1  0  0  0  0
 10 11  1  0  0  0  0
 10 24  1  0  0  0  0
 11 12  2  0  0  0  0
 12 13  1  0  0  0  0
 12 25  1  0  0  0  0
 13 23  2  0  0  0  0
 14 15  2  0  0  0  0
 15 16  1  0  0  0  0
 15 17  1  0  0  0  0
 17 18  2  0  0  0  0
 17 20  1  0  0  0  0
 19 20  1  0  0  0  0
 20 21  2  0  0  0  0
 22 23  1  0  0  0  0
 23 24  1  0  0  0  0
 25 26  1  0  0  0  0
  2 27  1  0  0  0  0
  3 28  1  0  0  0  0
  3 29  1  0  0  0  0
  4 30  1  0  0  0  0
  5 31  1  0  0  0  0
  5 32  1  0  0  0  0
  6 33  1  0  0  0  0
  6 34  1  0  0  0  0
  7 35  1  0  0  0  0
  7 36  1  0  0  0  0
  8 37  1  0  0  0  0
  8 38  1  0  0  0  0
  9 39  1  0  0  0  0
  9 40  1  0  0  0  0
 10 41  1  0  0  0  0
 10 42  1  0  0  0  0
 11 43  1  0  0  0  0
 13 44  1  0  0  0  0
 24 45  1  0  0  0  0
 24 46  1  0  0  0  0
 26 47  1  0  0  0  0
 26 48  1  0  0  0  0
 26 49  1  0  0  0  0
M  END
> <r_user_dG.exp>
-7.862

$$$$
22
  -OEChem-05192314073D
 Structure written by MMmdl.
 49 52  0     1  0  0  0  0  0999 V2000
    1.3901   29.1077    6.7935 C   0  0  0  0  0  0  0  0  0  0  0  0
   -1.6911   31.9130    8.0794 C   0  0  0  0  0  0  0  0  0  0  0  0
   -0.7437   26.3748    8.8319 C   0  0  0  0  0  0  0  0  0  0  0  0
   -1.3142   25.5567    9.9914 C   0  0  0  0  0  0  0  0  0  0  0  0
   -1.1214   24.0589    9.6854 C   0  0  0  0  0  0  0  0  0  0  0  0
   -1.5824   23.1795   10.8502 C   0  0  0  0  0  0  0  0  0  0  0  0
   -0.8551   23.5463   12.1491 C   0  0  0  0  0  0  0  0  0  0  0  0
   -1.0780   25.0277   12.4857 C   0  0  0  0  0  0  0  0  0  0  0  0
   -0.6321   25.9351   11.3273 C   0  0  0  0  0  0  0  0  0  0  0  0
    4.6903   25.7129    5.8380 C   0  0  0  0  0  0  0  0  0  0  0  0
    4.6667   25.1395    7.1233 C   0  0  0  0  0  0  0  0  0  0  0  0
    3.9496   25.7658    8.1576 C   0  0  0  0  0  0  0  0  0  0  0  0
    3.2460   26.9556    7.8985 C   0  0  0  0  0  0  0  0  0  0  0  0
    0.6302   28.2313    7.4508 N   0  0  0  0  0  0  0  0  0  0  0  0
   -0.4898   28.6252    8.0923 C   0  0  0  0  0  0  0  0  0  0  0  0
   -1.1796   27.7315    8.8832 O   0  0  0  0  0  0  0  0  0  0  0  0
   -0.8660   29.9818    8.0000 C   0  0  0  0  0  0  0  0  0  0  0  0
   -1.9251   30.7129    8.5212 N   0  0  0  0  0  0  0  0  0  0  0  0
   -0.5542   32.0464    7.3306 N   0  0  0  0  0  0  0  0  0  0  0  0
   -0.0249   30.7863    7.2610 C   0  0  0  0  0  0  0  0  0  0  0  0
    1.1172   30.4049    6.6113 N   0  0  0  0  0  0  0  0  0  0  0  0
    2.5827   28.6807    6.3360 N   0  0  0  0  0  0  0  0  0  0  0  0
    3.2365   27.5251    6.6032 C   0  0  3  0  0  0  0  0  0  0  0  0
    3.9871   26.9068    5.5819 C   0  0  0  0  0  0  0  0  0  0  0  0
    3.9347   25.0874    9.7381 S   0  0  0  0  0  0  0  0  0  0  0  0
    2.9329   26.1133   10.8427 C   0  0  0  0  0  0  0  0  0  0  0  0
   -2.3473   32.7449    8.2886 H   0  0  0  0  0  0  0  0  0  0  0  0
    0.3548   26.3504    8.8841 H   0  0  0  0  0  0  0  0  0  0  0  0
   -1.0756   25.9287    7.8828 H   0  0  0  0  0  0  0  0  0  0  0  0
   -2.3913   25.7635   10.0760 H   0  0  0  0  0  0  0  0  0  0  0  0
   -1.7056   23.7998    8.7901 H   0  0  0  0  0  0  0  0  0  0  0  0
   -0.0549   23.8683    9.4951 H   0  0  0  0  0  0  0  0  0  0  0  0
   -2.6643   23.3154   10.9950 H   0  0  0  0  0  0  0  0  0  0  0  0
   -1.3742   22.1268   10.6083 H   0  0  0  0  0  0  0  0  0  0  0  0
   -1.2434   22.9254   12.9699 H   0  0  0  0  0  0  0  0  0  0  0  0
    0.2221   23.3603   12.0266 H   0  0  0  0  0  0  0  0  0  0  0  0
   -2.1477   25.1942   12.6804 H   0  0  0  0  0  0  0  0  0  0  0  0
   -0.4976   25.2825   13.3847 H   0  0  0  0  0  0  0  0  0  0  0  0
    0.4575   25.8452   11.2064 H   0  0  0  0  0  0  0  0  0  0  0  0
   -0.8891   26.9759   11.5737 H   0  0  0  0  0  0  0  0  0  0  0  0
    5.2489   25.2365    5.0459 H   0  0  0  0  0  0  0  0  0  0  0  0
    5.1989   24.2194    7.3147 H   0  0  0  0  0  0  0  0  0  0  0  0
    2.1960   26.7631    8.1641 H   0  0  0  0  0  0  0  0  0  0  0  0
    3.6610   27.7186    8.5734 H   0  0  0  0  0  0  0  0  0  0  0  0
    2.3476   26.9370    6.3312 H   0  0  0  0  0  0  0  0  0  0  0  0
    4.0232   27.3508    4.5981 H   0  0  0  0  0  0  0  0  0  0  0  0
    2.9290   25.6723   11.8504 H   0  0  0  0  0  0  0  0  0  0  0  0
    3.3582   27.1268   10.8878 H   0  0  0  0  0  0  0  0  0  0  0  0
    1.9025   26.1647   10.4611 H   0  0  0  0  0  0  0  0  0  0  0  0
  1 14  1  0  0  0  0
  1 21  1  0  0  0  0
  1 22  2  0  0  0  0
  2 18  1  0  0  0  0
  2 19  2  0  0  0  0
  3  4  1  0  0  0  0
  3 16  1  0  0  0  0
  4  5  1  0  0  0  0
  4  9  1  0  0  0  0
  5  6  1  0  0  0  0
  6  7  1  0  0  0  0
  7  8  1  0  0  0  0
  8  9  1  0  0  0  0
 10 11  1  0  0  0  0
 10 24  2  0  0  0  0
 11 12  2  0  0  0  0
 12 13  1  0  0  0  0
 12 25  1  0  0  0  0
 13 23  1  0  0  0  0
 14 15  2  0  0  0  0
 15 16  1  0  0  0  0
 15 17  1  0  0  0  0
 17 18  2  0  0  0  0
 17 20  1  0  0  0  0
 19 20  1  0  0  0  0
 20 21  2  0  0  0  0
 22 23  1  0  0  0  0
 23 24  1  0  0  0  0
 25 26  1  0  0  0  0
  2 27  1  0  0  0  0
  3 28  1  0  0  0  0
  3 29  1  0  0  0  0
  4 30  1  0  0  0  0
  5 31  1  0  0  0  0
  5 32  1  0  0  0  0
  6 33  1  0  0  0  0
  6 34  1  0  0  0  0
  7 35  1  0  0  0  0
  7 36  1  0  0  0  0
  8 37  1  0  0  0  0
  8 38  1  0  0  0  0
  9 39  1  0  0  0  0
  9 40  1  0  0  0  0
 10 41  1  0  0  0  0
 11 42  1  0  0  0  0
 13 43  1  0  0  0  0
 13 44  1  0  0  0  0
 23 45  1  0  0  0  0
 24 46  1  0  0  0  0
 26 47  1  0  0  0  0
 26 48  1  0  0  0  0
 26 49  1  0  0  0  0
M  END
> <r_user_dG.exp>
-7.862

$$$$
22
  -OEChem-05192314073D
 Structure written by MMmdl.
 49 52  0     1  0  0  0  0  0999 V2000
    1.3901   29.1077    6.7935 C   0  0  0  0  0  0  0  0  0  0  0  0
   -1.6911   31.9130    8.0794 C   0  0  0  0  0  0  0  0  0  0  0  0
   -0.7437   26.3748    8.8319 C   0  0  0  0  0  0  0  0  0  0  0  0
   -1.3142   25.5567    9.9914 C   0  0  0  0  0  0  0  0  0  0  0  0
   -1.1214   24.0589    9.6854 C   0  0  0  0  0  0  0  0  0  0  0  0
   -1.5824   23.1795   10.8502 C   0  0  0  0  0  0  0  0  0  0  0  0
   -0.8551   23.5463   12.1491 C   0  0  0  0  0  0  0  0  0  0  0  0
   -1.0780   25.0277   12.4857 C   0  0  0  0  0  0  0  0  0  0  0  0
   -0.6321   25.9351   11.3273 C   0  0  0  0  0  0  0  0  0  0  0  0
    4.6903   25.7129    5.8380 C   0  0  0  0  0  0  0  0  0  0  0  0
    4.6667   25.1395    7.1233 C   0  0  0  0  0  0  0  0  0  0  0  0
    3.9496   25.7658    8.1576 C   0  0  0  0  0  0  0  0  0  0  0  0
    3.2460   26.9556    7.8985 C   0  0  0  0  0  0  0  0  0  0  0  0
    0.6302   28.2313    7.4508 N   0  0  0  0  0  0  0  0  0  0  0  0
   -0.4898   28.6252    8.0923 C   0  0  0  0  0  0  0  0  0  0  0  0
   -1.1796   27.7315    8.8832 O   0  0  0  0  0  0  0  0  0  0  0  0
   -0.8660   29.9818    8.0000 C   0  0  3  0  0  0  0  0  0  0  0  0
   -1.9251   30.7129    8.5212 N   0  0  0  0  0  0  0  0  0  0  0  0
   -0.5542   32.0464    7.3306 N   0  0  0  0  0  0  0  0  0  0  0  0
   -0.0249   30.7863    7.2610 C   0  0  0  0  0  0  0  0  0  0  0  0
    1.1172   30.4049    6.6113 N   0  0  0  0  0  0  0  0  0  0  0  0
    2.5827   28.6807    6.3360 N   0  0  0  0  0  0  0  0  0  0  0  0
    3.2365   27.5251    6.6032 C   0  0  0  0  0  0  0  0  0  0  0  0
    3.9871   26.9068    5.5819 C   0  0  0  0  0  0  0  0  0  0  0  0
    3.9347   25.0874    9.7381 S   0  0  0  0  0  0  0  0  0  0  0  0
    2.9329   26.1133   10.8427 C   0  0  0  0  0  0  0  0  0  0  0  0
   -2.3473   32.7449    8.2886 H   0  0  0  0  0  0  0  0  0  0  0  0
    0.3548   26.3504    8.8841 H   0  0  0  0  0  0  0  0  0  0  0  0
   -1.0756   25.9287    7.8828 H   0  0  0  0  0  0  0  0  0  0  0  0
   -2.3913   25.7635   10.0760 H   0  0  0  0  0  0  0  0  0  0  0  0
   -1.7056   23.7998    8.7901 H   0  0  0  0  0  0  0  0  0  0  0  0
   -0.0549   23.8683    9.4951 H   0  0  0  0  0  0  0  0  0  0  0  0
   -2.6643   23.3154   10.9950 H   0  0  0  0  0  0  0  0  0  0  0  0
   -1.3742   22.1268   10.6083 H   0  0  0  0  0  0  0  0  0  0  0  0
   -1.2434   22.9254   12.9699 H   0  0  0  0  0  0  0  0  0  0  0  0
    0.2221   23.3603   12.0266 H   0  0  0  0  0  0  0  0  0  0  0  0
   -2.1477   25.1942   12.6804 H   0  0  0  0  0  0  0  0  0  0  0  0
   -0.4976   25.2825   13.3847 H   0  0  0  0  0  0  0  0  0  0  0  0
    0.4575   25.8452   11.2064 H   0  0  0  0  0  0  0  0  0  0  0  0
   -0.8891   26.9759   11.5737 H   0  0  0  0  0  0  0  0  0  0  0  0
    5.2489   25.2365    5.0459 H   0  0  0  0  0  0  0  0  0  0  0  0
    5.1989   24.2194    7.3147 H   0  0  0  0  0  0  0  0  0  0  0  0
    2.1960   26.7631    8.1641 H   0  0  0  0  0  0  0  0  0  0  0  0
    3.6610   27.7186    8.5734 H   0  0  0  0  0  0  0  0  0  0  0  0
   -1.4557   29.7617    7.0979 H   0  0  0  0  0  0  0  0  0  0  0  0
    4.0232   27.3508    4.5981 H   0  0  0  0  0  0  0  0  0  0  0  0
    2.9290   25.6723   11.8504 H   0  0  0  0  0  0  0  0  0  0  0  0
    3.3582   27.1268   10.8878 H   0  0  0  0  0  0  0  0  0  0  0  0
    1.9025   26.1647   10.4611 H   0  0  0  0  0  0  0  0  0  0  0  0
  1 14  1  0  0  0  0
  1 21  2  0  0  0  0
  1 22  1  0  0  0  0
  2 18  2  0  0  0  0
  2 19  1  0  0  0  0
  3  4  1  0  0  0  0
  3 16  1  0  0  0  0
  4  5  1  0  0  0  0
  4  9  1  0  0  0  0
  5  6  1  0  0  0  0
  6  7  1  0  0  0  0
  7  8  1  0  0  0  0
  8  9  1  0  0  0  0
 10 11  1  0  0  0  0
 10 24  2  0  0  0  0
 11 12  2  0  0  0  0
 12 13  1  0  0  0  0
 12 25  1  0  0  0  0
 13 23  1  0  0  0  0
 14 15  2  0  0  0  0
 15 16  1  0  0  0  0
 15 17  1  0  0  0  0
 17 18  1  0  0  0  0
 17 20  1  0  0  0  0
 19 20  2  0  0  0  0
 20 21  1  0  0  0  0
 22 23  2  3  0  0  0
 23 24  1  0  0  0  0
 25 26  1  0  0  0  0
  2 27  1  0  0  0  0
  3 28  1  0  0  0  0
  3 29  1  0  0  0  0
  4 30  1  0  0  0  0
  5 31  1  0  0  0  0
  5 32  1  0  0  0  0
  6 33  1  0  0  0  0
  6 34  1  0  0  0  0
  7 35  1  0  0  0  0
  7 36  1  0  0  0  0
  8 37  1  0  0  0  0
  8 38  1  0  0  0  0
  9 39  1  0  0  0  0
  9 40  1  0  0  0  0
 10 41  1  0  0  0  0
 11 42  1  0  0  0  0
 13 43  1  0  0  0  0
 13 44  1  0  0  0  0
 17 45  1  0  0  0  0
 24 46  1  0  0  0  0
 26 47  1  0  0  0  0
 26 48  1  0  0  0  0
 26 49  1  0  0  0  0
M  END
> <r_user_dG.exp>
-7.862

$$$$
22
  -OEChem-05192314073D
 Structure written by MMmdl.
 49 52  0     1  0  0  0  0  0999 V2000
    1.3901   29.1077    6.7935 C   0  0  0  0  0  0  0  0  0  0  0  0
   -1.6911   31.9130    8.0794 C   0  0  0  0  0  0  0  0  0  0  0  0
   -0.7437   26.3748    8.8319 C   0  0  0  0  0  0  0  0  0  0  0  0
   -1.3142   25.5567    9.9914 C   0  0  0  0  0  0  0  0  0  0  0  0
   -1.1214   24.0589    9.6854 C   0  0  0  0  0  0  0  0  0  0  0  0
   -1.5824   23.1795   10.8502 C   0  0  0  0  0  0  0  0  0  0  0  0
   -0.8551   23.5463   12.1491 C   0  0  0  0  0  0  0  0  0  0  0  0
   -1.0780   25.0277   12.4857 C   0  0  0  0  0  0  0  0  0  0  0  0
   -0.6321   25.9351   11.3273 C   0  0  0  0  0  0  0  0  0  0  0  0
    4.6903   25.7129    5.8380 C   0  0  0  0  0  0  0  0  0  0  0  0
    4.6667   25.1395    7.1233 C   0  0  0  0  0  0  0  0  0  0  0  0
    3.9496   25.7658    8.1576 C   0  0  0  0  0  0  0  0  0  0  0  0
    3.2460   26.9556    7.8985 C   0  0  0  0  0  0  0  0  0  0  0  0
    0.6302   28.2313    7.4508 N   0  0  0  0  0  0  0  0  0  0  0  0
   -0.4898   28.6252    8.0923 C   0  0  0  0  0  0  0  0  0  0  0  0
   -1.1796   27.7315    8.8832 O   0  0  0  0  0  0  0  0  0  0  0  0
   -0.8660   29.9818    8.0000 C   0  0  0  0  0  0  0  0  0  0  0  0
   -1.9251   30.7129    8.5212 N   0  0  0  0  0  0  0  0  0  0  0  0
   -0.5542   32.0464    7.3306 N   0  0  0  0  0  0  0  0  0  0  0  0
   -0.0249   30.7863    7.2610 C   0  0  3  0  0  0  0  0  0  0  0  0
    1.1172   30.4049    6.6113 N   0  0  0  0  0  0  0  0  0  0  0  0
    2.5827   28.6807    6.3360 N   0  0  0  0  0  0  0  0  0  0  0  0
    3.2365   27.5251    6.6032 C   0  0  0  0  0  0  0  0  0  0  0  0
    3.9871   26.9068    5.5819 C   0  0  0  0  0  0  0  0  0  0  0  0
    3.9347   25.0874    9.7381 S   0  0  0  0  0  0  0  0  0  0  0  0
    2.9329   26.1133   10.8427 C   0  0  0  0  0  0  0  0  0  0  0  0
   -2.3473   32.7449    8.2886 H   0  0  0  0  0  0  0  0  0  0  0  0
    0.3548   26.3504    8.8841 H   0  0  0  0  0  0  0  0  0  0  0  0
   -1.0756   25.9287    7.8828 H   0  0  0  0  0  0  0  0  0  0  0  0
   -2.3913   25.7635   10.0760 H   0  0  0  0  0  0  0  0  0  0  0  0
   -1.7056   23.7998    8.7901 H   0  0  0  0  0  0  0  0  0  0  0  0
   -0.0549   23.8683    9.4951 H   0  0  0  0  0  0  0  0  0  0  0  0
   -2.6643   23.3154   10.9950 H   0  0  0  0  0  0  0  0  0  0  0  0
   -1.3742   22.1268   10.6083 H   0  0  0  0  0  0  0  0  0  0  0  0
   -1.2434   22.9254   12.9699 H   0  0  0  0  0  0  0  0  0  0  0  0
    0.2221   23.3603   12.0266 H   0  0  0  0  0  0  0  0  0  0  0  0
   -2.1477   25.1942   12.6804 H   0  0  0  0  0  0  0  0  0  0  0  0
   -0.4976   25.2825   13.3847 H   0  0  0  0  0  0  0  0  0  0  0  0
    0.4575   25.8452   11.2064 H   0  0  0  0  0  0  0  0  0  0  0  0
   -0.8891   26.9759   11.5737 H   0  0  0  0  0  0  0  0  0  0  0  0
    5.2489   25.2365    5.0459 H   0  0  0  0  0  0  0  0  0  0  0  0
    5.1989   24.2194    7.3147 H   0  0  0  0  0  0  0  0  0  0  0  0
    2.1960   26.7631    8.1641 H   0  0  0  0  0  0  0  0  0  0  0  0
    3.6610   27.7186    8.5734 H   0  0  0  0  0  0  0  0  0  0  0  0
   -0.6153   30.5819    6.3556 H   0  0  0  0  0  0  0  0  0  0  0  0
    4.0232   27.3508    4.5981 H   0  0  0  0  0  0  0  0  0  0  0  0
    2.9290   25.6723   11.8504 H   0  0  0  0  0  0  0  0  0  0  0  0
    3.3582   27.1268   10.8878 H   0  0  0  0  0  0  0  0  0  0  0  0
    1.9025   26.1647   10.4611 H   0  0  0  0  0  0  0  0  0  0  0  0
  1 14  1  0  0  0  0
  1 21  2  0  0  0  0
  1 22  1  0  0  0  0
  2 18  1  0  0  0  0
  2 19  2  0  0  0  0
  3  4  1  0  0  0  0
  3 16  1  0  0  0  0
  4  5  1  0  0  0  0
  4  9  1  0  0  0  0
  5  6  1  0  0  0  0
  6  7  1  0  0  0  0
  7  8  1  0  0  0  0
  8  9  1  0  0  0  0
 10 11  1  0  0  0  0
 10 24  2  0  0  0  0
 11 12  2  0  0  0  0
 12 13  1  0  0  0  0
 12 25  1  0  0  0  0
 13 23  1  0  0  0  0
 14 15  2  0  0  0  0
 15 16  1  0  0  0  0
 15 17  1  0  0  0  0
 17 18  2  0  0  0  0
 17 20  1  0  0  0  0
 19 20  1  0  0  0  0
 20 21  1  0  0  0  0
 22 23  2  3  0  0  0
 23 24  1  0  0  0  0
 25 26  1  0  0  0  0
  2 27  1  0  0  0  0
  3 28  1  0  0  0  0
  3 29  1  0  0  0  0
  4 30  1  0  0  0  0
  5 31  1  0  0  0  0
  5 32  1  0  0  0  0
  6 33  1  0  0  0  0
  6 34  1  0  0  0  0
  7 35  1  0  0  0  0
  7 36  1  0  0  0  0
  8 37  1  0  0  0  0
  8 38  1  0  0  0  0
  9 39  1  0  0  0  0
  9 40  1  0  0  0  0
 10 41  1  0  0  0  0
 11 42  1  0  0  0  0
 13 43  1  0  0  0  0
 13 44  1  0  0  0  0
 20 45  1  0  0  0  0
 24 46  1  0  0  0  0
 26 47  1  0  0  0  0
 26 48  1  0  0  0  0
 26 49  1  0  0  0  0
M  END
> <r_user_dG.exp>
-7.862

$$$$
22
  -OEChem-05192314073D
 Structure written by MMmdl.
 49 52  0     1  0  0  0  0  0999 V2000
    1.3901   29.1077    6.7935 C   0  0  0  0  0  0  0  0  0  0  0  0
   -1.6911   31.9130    8.0794 C   0  0  0  0  0  0  0  0  0  0  0  0
   -0.7437   26.3748    8.8319 C   0  0  0  0  0  0  0  0  0  0  0  0
   -1.3142   25.5567    9.9914 C   0  0  0  0  0  0  0  0  0  0  0  0
   -1.1214   24.0589    9.6854 C   0  0  0  0  0  0  0  0  0  0  0  0
   -1.5824   23.1795   10.8502 C   0  0  0  0  0  0  0  0  0  0  0  0
   -0.8551   23.5463   12.1491 C   0  0  0  0  0  0  0  0  0  0  0  0
   -1.0780   25.0277   12.4857 C   0  0  0  0  0  0  0  0  0  0  0  0
   -0.6321   25.9351   11.3273 C   0  0  0  0  0  0  0  0  0  0  0  0
    4.6903   25.7129    5.8380 C   0  0  0  0  0  0  0  0  0  0  0  0
    4.6667   25.1395    7.1233 C   0  0  0  0  0  0  0  0  0  0  0  0
    3.9496   25.7658    8.1576 C   0  0  0  0  0  0  0  0  0  0  0  0
    3.2460   26.9556    7.8985 C   0  0  0  0  0  0  0  0  0  0  0  0
    0.6302   28.2313    7.4508 N   0  0  0  0  0  0  0  0  0  0  0  0
   -0.4898   28.6252    8.0923 C   0  0  3  0  0  0  0  0  0  0  0  0
   -1.1796   27.7315    8.8832 O   0  0  0  0  0  0  0  0  0  0  0  0
   -0.8660   29.9818    8.0000 C   0  0  0  0  0  0  0  0  0  0  0  0
   -1.9251   30.7129    8.5212 N   0  0  0  0  0  0  0  0  0  0  0  0
   -0.5542   32.0464    7.3306 N   0  0  0  0  0  0  0  0  0  0  0  0
   -0.0249   30.7863    7.2610 C   0  0  0  0  0  0  0  0  0  0  0  0
    1.1172   30.4049    6.6113 N   0  0  0  0  0  0  0  0  0  0  0  0
    2.5827   28.6807    6.3360 N   0  0  0  0  0  0  0  0  0  0  0  0
    3.2365   27.5251    6.6032 C   0  0  0  0  0  0  0  0  0  0  0  0
    3.9871   26.9068    5.5819 C   0  0  0  0  0  0  0  0  0  0  0  0
    3.9347   25.0874    9.7381 S   0  0  0  0  0  0  0  0  0  0  0  0
    2.9329   26.1133   10.8427 C   0  0  0  0  0  0  0  0  0  0  0  0
   -2.3473   32.7449    8.2886 H   0  0  0  0  0  0  0  0  0  0  0  0
    0.3548   26.3504    8.8841 H   0  0  0  0  0  0  0  0  0  0  0  0
   -1.0756   25.9287    7.8828 H   0  0  0  0  0  0  0  0  0  0  0  0
   -2.3913   25.7635   10.0760 H   0  0  0  0  0  0  0  0  0  0  0  0
   -1.7056   23.7998    8.7901 H   0  0  0  0  0  0  0  0  0  0  0  0
   -0.0549   23.8683    9.4951 H   0  0  0  0  0  0  0  0  0  0  0  0
   -2.6643   23.3154   10.9950 H   0  0  0  0  0  0  0  0  0  0  0  0
   -1.3742   22.1268   10.6083 H   0  0  0  0  0  0  0  0  0  0  0  0
   -1.2434   22.9254   12.9699 H   0  0  0  0  0  0  0  0  0  0  0  0
    0.2221   23.3603   12.0266 H   0  0  0  0  0  0  0  0  0  0  0  0
   -2.1477   25.1942   12.6804 H   0  0  0  0  0  0  0  0  0  0  0  0
   -0.4976   25.2825   13.3847 H   0  0  0  0  0  0  0  0  0  0  0  0
    0.4575   25.8452   11.2064 H   0  0  0  0  0  0  0  0  0  0  0  0
   -0.8891   26.9759   11.5737 H   0  0  0  0  0  0  0  0  0  0  0  0
    5.2489   25.2365    5.0459 H   0  0  0  0  0  0  0  0  0  0  0  0
    5.1989   24.2194    7.3147 H   0  0  0  0  0  0  0  0  0  0  0  0
    2.1960   26.7631    8.1641 H   0  0  0  0  0  0  0  0  0  0  0  0
    3.6610   27.7186    8.5734 H   0  0  0  0  0  0  0  0  0  0  0  0
   -1.1094   28.3692    7.2202 H   0  0  0  0  0  0  0  0  0  0  0  0
    4.0232   27.3508    4.5981 H   0  0  0  0  0  0  0  0  0  0  0  0
    2.9290   25.6723   11.8504 H   0  0  0  0  0  0  0  0  0  0  0  0
    3.3582   27.1268   10.8878 H   0  0  0  0  0  0  0  0  0  0  0  0
    1.9025   26.1647   10.4611 H   0  0  0  0  0  0  0  0  0  0  0  0
  1 14  2  0  0  0  0
  1 21  1  0  0  0  0
  1 22  1  0  0  0  0
  2 18  1  0  0  0  0
  2 19  2  0  0  0  0
  3  4  1  0  0  0  0
  3 16  1  0  0  0  0
  4  5  1  0  0  0  0
  4  9  1  0  0  0  0
  5  6  1  0  0  0  0
  6  7  1  0  0  0  0
  7  8  1  0  0  0  0
  8  9  1  0  0  0  0
 10 11  1  0  0  0  0
 10 24  2  0  0  0  0
 11 12  2  0  0  0  0
 12 13  1  0  0  0  0
 12 25  1  0  0  0  0
 13 23  1  0  0  0  0
 14 15  1  0  0  0  0
 15 16  1  0  0  0  0
 15 17  1  0  0  0  0
 17 18  2  0  0  0  0
 17 20  1  0  0  0  0
 19 20  1  0  0  0  0
 20 21  2  0  0  0  0
 22 23  2  3  0  0  0
 23 24  1  0  0  0  0
 25 26  1  0  0  0  0
  2 27  1  0  0  0  0
  3 28  1  0  0  0  0
  3 29  1  0  0  0  0
  4 30  1  0  0  0  0
  5 31  1  0  0  0  0
  5 32  1  0  0  0  0
  6 33  1  0  0  0  0
  6 34  1  0  0  0  0
  7 35  1  0  0  0  0
  7 36  1  0  0  0  0
  8 37  1  0  0  0  0
  8 38  1  0  0  0  0
  9 39  1  0  0  0  0
  9 40  1  0  0  0  0
 10 41  1  0  0  0  0
 11 42  1  0  0  0  0
 13 43  1  0  0  0  0
 13 44  1  0  0  0  0
 15 45  1  0  0  0  0
 24 46  1  0  0  0  0
 26 47  1  0  0  0  0
 26 48  1  0  0  0  0
 26 49  1  0  0  0  0
M  END
> <r_user_dG.exp>
-7.862

$$$$
22
  -OEChem-05192314073D
 Structure written by MMmdl.
 49 52  0     1  0  0  0  0  0999 V2000
    1.3901   29.1077    6.7935 C   0  0  0  0  0  0  0  0  0  0  0  0
   -1.6911   31.9130    8.0794 C   0  0  0  0  0  0  0  0  0  0  0  0
   -0.7437   26.3748    8.8319 C   0  0  0  0  0  0  0  0  0  0  0  0
   -1.3142   25.5567    9.9914 C   0  0  0  0  0  0  0  0  0  0  0  0
   -1.1214   24.0589    9.6854 C   0  0  0  0  0  0  0  0  0  0  0  0
   -1.5824   23.1795   10.8502 C   0  0  0  0  0  0  0  0  0  0  0  0
   -0.8551   23.5463   12.1491 C   0  0  0  0  0  0  0  0  0  0  0  0
   -1.0780   25.0277   12.4857 C   0  0  0  0  0  0  0  0  0  0  0  0
   -0.6321   25.9351   11.3273 C   0  0  0  0  0  0  0  0  0  0  0  0
    4.6903   25.7129    5.8380 C   0  0  0  0  0  0  0  0  0  0  0  0
    4.6667   25.1395    7.1233 C   0  0  0  0  0  0  0  0  0  0  0  0
    3.9496   25.7658    8.1576 C   0  0  3  0  0  0  0  0  0  0  0  0
    3.2460   26.9556    7.8985 C   0  0  0  0  0  0  0  0  0  0  0  0
    0.6302   28.2313    7.4508 N   0  0  0  0  0  0  0  0  0  0  0  0
   -0.4898   28.6252    8.0923 C   0  0  0  0  0  0  0  0  0  0  0  0
   -1.1796   27.7315    8.8832 O   0  0  0  0  0  0  0  0  0  0  0  0
   -0.8660   29.9818    8.0000 C   0  0  0  0  0  0  0  0  0  0  0  0
   -1.9251   30.7129    8.5212 N   0  0  0  0  0  0  0  0  0  0  0  0
   -0.5542   32.0464    7.3306 N   0  0  0  0  0  0  0  0  0  0  0  0
   -0.0249   30.7863    7.2610 C   0  0  0  0  0  0  0  0  0  0  0  0
    1.1172   30.4049    6.6113 N   0  0  0  0  0  0  0  0  0  0  0  0
    2.5827   28.6807    6.3360 N   0  0  0  0  0  0  0  0  0  0  0  0
    3.2365   27.5251    6.6032 C   0  0  0  0  0  0  0  0  0  0  0  0
    3.9871   26.9068    5.5819 C   0  0  0  0  0  0  0  0  0  0  0  0
    3.9347   25.0874    9.7381 S   0  0  0  0  0  0  0  0  0  0  0  0
    2.9329   26.1133   10.8427 C   0  0  0  0  0  0  0  0  0  0  0  0
   -2.3473   32.7449    8.2886 H   0  0  0  0  0  0  0  0  0  0  0  0
    0.3548   26.3504    8.8841 H   0  0  0  0  0  0  0  0  0  0  0  0
   -1.0756   25.9287    7.8828 H   0  0  0  0  0  0  0  0  0  0  0  0
   -2.3913   25.7635   10.0760 H   0  0  0  0  0  0  0  0  0  0  0  0
   -1.7056   23.7998    8.7901 H   0  0  0  0  0  0  0  0  0  0  0  0
   -0.0549   23.8683    9.4951 H   0  0  0  0  0  0  0  0  0  0  0  0
   -2.6643   23.3154   10.9950 H   0  0  0  0  0  0  0  0  0  0  0  0
   -1.3742   22.1268   10.6083 H   0  0  0  0  0  0  0  0  0  0  0  0
   -1.2434   22.9254   12.9699 H   0  0  0  0  0  0  0  0  0  0  0  0
    0.2221   23.3603   12.0266 H   0  0  0  0  0  0  0  0  0  0  0  0
   -2.1477   25.1942   12.6804 H   0  0  0  0  0  0  0  0  0  0  0  0
   -0.4976   25.2825   13.3847 H   0  0  0  0  0  0  0  0  0  0  0  0
    0.4575   25.8452   11.2064 H   0  0  0  0  0  0  0  0  0  0  0  0
   -0.8891   26.9759   11.5737 H   0  0  0  0  0  0  0  0  0  0  0  0
    5.2489   25.2365    5.0459 H   0  0  0  0  0  0  0  0  0  0  0  0
    5.1989   24.2194    7.3147 H   0  0  0  0  0  0  0  0  0  0  0  0
    3.0567   25.1790    7.8960 H   0  0  0  0  0  0  0  0  0  0  0  0
    2.1960   26.7631    8.1641 H   0  0  0  0  0  0  0  0  0  0  0  0
    3.6610   27.7186    8.5734 H   0  0  0  0  0  0  0  0  0  0  0  0
    4.0232   27.3508    4.5981 H   0  0  0  0  0  0  0  0  0  0  0  0
    2.9290   25.6723   11.8504 H   0  0  0  0  0  0  0  0  0  0  0  0
    3.3582   27.1268   10.8878 H   0  0  0  0  0  0  0  0  0  0  0  0
    1.9025   26.1647   10.4611 H   0  0  0  0  0  0  0  0  0  0  0  0
  1 14  1  0  0  0  0
  1 21  1  0  0  0  0
  1 22  2  0  0  0  0
  2 18  1  0  0  0  0
  2 19  2  0  0  0  0
  3  4  1  0  0  0  0
  3 16  1  0  0  0  0
  4  5  1  0  0  0  0
  4  9  1  0  0  0  0
  5  6  1  0  0  0  0
  6  7  1  0  0  0  0
  7  8  1  0  0  0  0
  8  9  1  0  0  0  0
 10 11  2  0  0  0  0
 10 24  1  0  0  0  0
 11 12  1  0  0  0  0
 12 13  1  0  0  0  0
 12 25  1  0  0  0  0
 13 23  1  0  0  0  0
 14 15  2  0  0  0  0
 15 16  1  0  0  0  0
 15 17  1  0  0  0  0
 17 18  2  0  0  0  0
 17 20  1  0  0  0  0
 19 20  1  0  0  0  0
 20 21  2  0  0  0  0
 22 23  1  0  0  0  0
 23 24  2  0  0  0  0
 25 26  1  0  0  0  0
  2 27  1  0  0  0  0
  3 28  1  0  0  0  0
  3 29  1  0  0  0  0
  4 30  1  0  0  0  0
  5 31  1  0  0  0  0
  5 32  1  0  0  0  0
  6 33  1  0  0  0  0
  6 34  1  0  0  0  0
  7 35  1  0  0  0  0
  7 36  1  0  0  0  0
  8 37  1  0  0  0  0
  8 38  1  0  0  0  0
  9 39  1  0  0  0  0
  9 40  1  0  0  0  0
 10 41  1  0  0  0  0
 11 42  1  0  0  0  0
 12 43  1  0  0  0  0
 13 44  1  0  0  0  0
 13 45  1  0  0  0  0
 24 46  1  0  0  0  0
 26 47  1  0  0  0  0
 26 48  1  0  0  0  0
 26 49  1  0  0  0  0
M  END
> <r_user_dG.exp>
-7.862

$$$$
22
  -OEChem-05192314073D
 Structure written by MMmdl.
 49 52  0     0  0  0  0  0  0999 V2000
    1.3901   29.1077    6.7935 C   0  0  0  0  0  0  0  0  0  0  0  0
   -1.6911   31.9130    8.0794 C   0  0  0  0  0  0  0  0  0  0  0  0
   -0.7437   26.3748    8.8319 C   0  0  0  0  0  0  0  0  0  0  0  0
   -1.3142   25.5567    9.9914 C   0  0  0  0  0  0  0  0  0  0  0  0
   -1.1214   24.0589    9.6854 C   0  0  0  0  0  0  0  0  0  0  0  0
   -1.5824   23.1795   10.8502 C   0  0  0  0  0  0  0  0  0  0  0  0
   -0.8551   23.5463   12.1491 C   0  0  0  0  0  0  0  0  0  0  0  0
   -1.0780   25.0277   12.4857 C   0  0  0  0  0  0  0  0  0  0  0  0
   -0.6321   25.9351   11.3273 C   0  0  0  0  0  0  0  0  0  0  0  0
    4.6903   25.7129    5.8380 C   0  0  0  0  0  0  0  0  0  0  0  0
    4.6667   25.1395    7.1233 C   0  0  0  0  0  0  0  0  0  0  0  0
    3.9496   25.7658    8.1576 C   0  0  0  0  0  0  0  0  0  0  0  0
    3.2460   26.9556    7.8985 C   0  0  0  0  0  0  0  0  0  0  0  0
    0.6302   28.2313    7.4508 N   0  0  0  0  0  0  0  0  0  0  0  0
   -0.4898   28.6252    8.0923 C   0  0  0  0  0  0  0  0  0  0  0  0
   -1.1796   27.7315    8.8832 O   0  0  0  0  0  0  0  0  0  0  0  0
   -0.8660   29.9818    8.0000 C   0  0  0  0  0  0  0  0  0  0  0  0
   -1.9251   30.7129    8.5212 N   0  0  0  0  0  0  0  0  0  0  0  0
   -0.5542   32.0464    7.3306 N   0  0  0  0  0  0  0  0  0  0  0  0
   -0.0249   30.7863    7.2610 C   0  0  0  0  0  0  0  0  0  0  0  0
    1.1172   30.4049    6.6113 N   0  0  0  0  0  0  0  0  0  0  0  0
    2.5827   28.6807    6.3360 N   0  0  0  0  0  0  0  0  0  0  0  0
    3.2365   27.5251    6.6032 C   0  0  0  0  0  0  0  0  0  0  0  0
    3.9871   26.9068    5.5819 C   0  0  0  0  0  0  0  0  0  0  0  0
    3.9347   25.0874    9.7381 S   0  0  0  0  0  0  0  0  0  0  0  0
    2.9329   26.1133   10.8427 C   0  0  0  0  0  0  0  0  0  0  0  0
   -2.3473   32.7449    8.2886 H   0  0  0  0  0  0  0  0  0  0  0  0
    0.3548   26.3504    8.8841 H   0  0  0  0  0  0  0  0  0  0  0  0
   -1.0756   25.9287    7.8828 H   0  0  0  0  0  0  0  0  0  0  0  0
   -2.3913   25.7635   10.0760 H   0  0  0  0  0  0  0  0  0  0  0  0
   -1.7056   23.7998    8.7901 H   0  0  0  0  0  0  0  0  0  0  0  0
   -0.0549   23.8683    9.4951 H   0  0  0  0  0  0  0  0  0  0  0  0
   -2.6643   23.3154   10.9950 H   0  0  0  0  0  0  0  0  0  0  0  0
   -1.3742   22.1268   10.6083 H   0  0  0  0  0  0  0  0  0  0  0  0
   -1.2434   22.9254   12.9699 H   0  0  0  0  0  0  0  0  0  0  0  0
    0.2221   23.3603   12.0266 H   0  0  0  0  0  0  0  0  0  0  0  0
   -2.1477   25.1942   12.6804 H   0  0  0  0  0  0  0  0  0  0  0  0
   -0.4976   25.2825   13.3847 H   0  0  0  0  0  0  0  0  0  0  0  0
    0.4575   25.8452   11.2064 H   0  0  0  0  0  0  0  0  0  0  0  0
   -0.8891   26.9759   11.5737 H   0  0  0  0  0  0  0  0  0  0  0  0
    5.7457   25.9094    5.5982 H   0  0  0  0  0  0  0  0  0  0  0  0
    4.2919   24.9561    5.1463 H   0  0  0  0  0  0  0  0  0  0  0  0
    5.1989   24.2194    7.3147 H   0  0  0  0  0  0  0  0  0  0  0  0
    2.1960   26.7631    8.1641 H   0  0  0  0  0  0  0  0  0  0  0  0
    3.6610   27.7186    8.5734 H   0  0  0  0  0  0  0  0  0  0  0  0
    4.0232   27.3508    4.5981 H   0  0  0  0  0  0  0  0  0  0  0  0
    2.9290   25.6723   11.8504 H   0  0  0  0  0  0  0  0  0  0  0  0
    3.3582   27.1268   10.8878 H   0  0  0  0  0  0  0  0  0  0  0  0
    1.9025   26.1647   10.4611 H   0  0  0  0  0  0  0  0  0  0  0  0
  1 14  1  0  0  0  0
  1 21  1  0  0  0  0
  1 22  2  0  0  0  0
  2 18  1  0  0  0  0
  2 19  2  0  0  0  0
  3  4  1  0  0  0  0
  3 16  1  0  0  0  0
  4  5  1  0  0  0  0
  4  9  1  0  0  0  0
  5  6  1  0  0  0  0
  6  7  1  0  0  0  0
  7  8  1  0  0  0  0
  8  9  1  0  0  0  0
 10 11  1  0  0  0  0
 10 24  1  0  0  0  0
 11 12  2  0  0  0  0
 12 13  1  0  0  0  0
 12 25  1  0  0  0  0
 13 23  1  0  0  0  0
 14 15  2  0  0  0  0
 15 16  1  0  0  0  0
 15 17  1  0  0  0  0
 17 18  2  0  0  0  0
 17 20  1  0  0  0  0
 19 20  1  0  0  0  0
 20 21  2  0  0  0  0
 22 23  1  0  0  0  0
 23 24  2  0  0  0  0
 25 26  1  0  0  0  0
  2 27  1  0  0  0  0
  3 28  1  0  0  0  0
  3 29  1  0  0  0  0
  4 30  1  0  0  0  0
  5 31  1  0  0  0  0
  5 32  1  0  0  0  0
  6 33  1  0  0  0  0
  6 34  1  0  0  0  0
  7 35  1  0  0  0  0
  7 36  1  0  0  0  0
  8 37  1  0  0  0  0
  8 38  1  0  0  0  0
  9 39  1  0  0  0  0
  9 40  1  0  0  0  0
 10 41  1  0  0  0  0
 10 42  1  0  0  0  0
 11 43  1  0  0  0  0
 13 44  1  0  0  0  0
 13 45  1  0  0  0  0
 24 46  1  0  0  0  0
 26 47  1  0  0  0  0
 26 48  1  0  0  0  0
 26 49  1  0  0  0  0
M  END
> <r_user_dG.exp>
-7.862

$$$$
22
  -OEChem-05192314073D
 Structure written by MMmdl.
 49 52  0     1  0  0  0  0  0999 V2000
    1.3901   29.1077    6.7935 C   0  0  3  0  0  0  0  0  0  0  0  0
   -1.6911   31.9130    8.0794 C   0  0  0  0  0  0  0  0  0  0  0  0
   -0.7437   26.3748    8.8319 C   0  0  0  0  0  0  0  0  0  0  0  0
   -1.3142   25.5567    9.9914 C   0  0  0  0  0  0  0  0  0  0  0  0
   -1.1214   24.0589    9.6854 C   0  0  0  0  0  0  0  0  0  0  0  0
   -1.5824   23.1795   10.8502 C   0  0  0  0  0  0  0  0  0  0  0  0
   -0.8551   23.5463   12.1491 C   0  0  0  0  0  0  0  0  0  0  0  0
   -1.0780   25.0277   12.4857 C   0  0  0  0  0  0  0  0  0  0  0  0
   -0.6321   25.9351   11.3273 C   0  0  0  0  0  0  0  0  0  0  0  0
    4.6903   25.7129    5.8380 C   0  0  0  0  0  0  0  0  0  0  0  0
    4.6667   25.1395    7.1233 C   0  0  0  0  0  0  0  0  0  0  0  0
    3.9496   25.7658    8.1576 C   0  0  0  0  0  0  0  0  0  0  0  0
    3.2460   26.9556    7.8985 C   0  0  0  0  0  0  0  0  0  0  0  0
    0.6302   28.2313    7.4508 N   0  0  0  0  0  0  0  0  0  0  0  0
   -0.4898   28.6252    8.0923 C   0  0  0  0  0  0  0  0  0  0  0  0
   -1.1796   27.7315    8.8832 O   0  0  0  0  0  0  0  0  0  0  0  0
   -0.8660   29.9818    8.0000 C   0  0  0  0  0  0  0  0  0  0  0  0
   -1.9251   30.7129    8.5212 N   0  0  0  0  0  0  0  0  0  0  0  0
   -0.5542   32.0464    7.3306 N   0  0  0  0  0  0  0  0  0  0  0  0
   -0.0249   30.7863    7.2610 C   0  0  0  0  0  0  0  0  0  0  0  0
    1.1172   30.4049    6.6113 N   0  0  0  0  0  0  0  0  0  0  0  0
    2.5827   28.6807    6.3360 N   0  0  0  0  0  0  0  0  0  0  0  0
    3.2365   27.5251    6.6032 C   0  0  0  0  0  0  0  0  0  0  0  0
    3.9871   26.9068    5.5819 C   0  0  0  0  0  0  0  0  0  0  0  0
    3.9347   25.0874    9.7381 S   0  0  0  0  0  0  0  0  0  0  0  0
    2.9329   26.1133   10.8427 C   0  0  0  0  0  0  0  0  0  0  0  0
    0.9058   28.8482    5.8406 H   0  0  0  0  0  0  0  0  0  0  0  0
   -2.3473   32.7449    8.2886 H   0  0  0  0  0  0  0  0  0  0  0  0
    0.3548   26.3504    8.8841 H   0  0  0  0  0  0  0  0  0  0  0  0
   -1.0756   25.9287    7.8828 H   0  0  0  0  0  0  0  0  0  0  0  0
   -2.3913   25.7635   10.0760 H   0  0  0  0  0  0  0  0  0  0  0  0
   -1.7056   23.7998    8.7901 H   0  0  0  0  0  0  0  0  0  0  0  0
   -0.0549   23.8683    9.4951 H   0  0  0  0  0  0  0  0  0  0  0  0
   -2.6643   23.3154   10.9950 H   0  0  0  0  0  0  0  0  0  0  0  0
   -1.3742   22.1268   10.6083 H   0  0  0  0  0  0  0  0  0  0  0  0
   -1.2434   22.9254   12.9699 H   0  0  0  0  0  0  0  0  0  0  0  0
    0.2221   23.3603   12.0266 H   0  0  0  0  0  0  0  0  0  0  0  0
   -2.1477   25.1942   12.6804 H   0  0  0  0  0  0  0  0  0  0  0  0
   -0.4976   25.2825   13.3847 H   0  0  0  0  0  0  0  0  0  0  0  0
    0.4575   25.8452   11.2064 H   0  0  0  0  0  0  0  0  0  0  0  0
   -0.8891   26.9759   11.5737 H   0  0  0  0  0  0  0  0  0  0  0  0
    5.2489   25.2365    5.0459 H   0  0  0  0  0  0  0  0  0  0  0  0
    4.2475   24.1285    7.0127 H   0  0  0  0  0  0  0  0  0  0  0  0
    5.7118   25.0684    7.4589 H   0  0  0  0  0  0  0  0  0  0  0  0
    2.7061   27.4407    8.6982 H   0  0  0  0  0  0  0  0  0  0  0  0
    4.0232   27.3508    4.5981 H   0  0  0  0  0  0  0  0  0  0  0  0
    2.9290   25.6723   11.8504 H   0  0  0  0  0  0  0  0  0  0  0  0
    3.3582   27.1268   10.8878 H   0  0  0  0  0  0  0  0  0  0  0  0
    1.9025   26.1647   10.4611 H   0  0  0  0  0  0  0  0  0  0  0  0
  1 14  1  0  0  0  0
  1 21  1  0  0  0  0
  1 22  1  0  0  0  0
  2 18  1  0  0  0  0
  2 19  2  0  0  0  0
  3  4  1  0  0  0  0
  3 16  1  0  0  0  0
  4  5  1  0  0  0  0
  4  9  1  0  0  0  0
  5  6  1  0  0  0  0
  6  7  1  0  0  0  0
  7  8  1  0  0  0  0
  8  9  1  0  0  0  0
 10 11  1  0  0  0  0
 10 24  2  0  0  0  0
 11 12  1  0  0  0  0
 12 13  2  0  0  0  0
 12 25  1  0  0  0  0
 13 23  1  0  0  0  0
 14 15  2  0  0  0  0
 15 16  1  0  0  0  0
 15 17  1  0  0  0  0
 17 18  2  0  0  0  0
 17 20  1  0  0  0  0
 19 20  1  0  0  0  0
 20 21  2  0  0  0  0
 22 23  2  3  0  0  0
 23 24  1  0  0  0  0
 25 26  1  0  0  0  0
  1 27  1  0  0  0  0
  2 28  1  0  0  0  0
  3 29  1  0  0  0  0
  3 30  1  0  0  0  0
  4 31  1  0  0  0  0
  5 32  1  0  0  0  0
  5 33  1  0  0  0  0
  6 34  1  0  0  0  0
  6 35  1  0  0  0  0
  7 36  1  0  0  0  0
  7 37  1  0  0  0  0
  8 38  1  0  0  0  0
  8 39  1  0  0  0  0
  9 40  1  0  0  0  0
  9 41  1  0  0  0  0
 10 42  1  0  0  0  0
 11 43  1  0  0  0  0
 11 44  1  0  0  0  0
 13 45  1  0  0  0  0
 24 46  1  0  0  0  0
 26 47  1  0  0  0  0
 26 48  1  0  0  0  0
 26 49  1  0  0  0  0
M  END
> <r_user_dG.exp>
-7.862

$$$$
22
  -OEChem-05192314073D
 Structure written by MMmdl.
 49 52  0     1  0  0  0  0  0999 V2000
    1.3901   29.1077    6.7935 C   0  0  3  0  0  0  0  0  0  0  0  0
   -1.6911   31.9130    8.0794 C   0  0  0  0  0  0  0  0  0  0  0  0
   -0.7437   26.3748    8.8319 C   0  0  0  0  0  0  0  0  0  0  0  0
   -1.3142   25.5567    9.9914 C   0  0  0  0  0  0  0  0  0  0  0  0
   -1.1214   24.0589    9.6854 C   0  0  0  0  0  0  0  0  0  0  0  0
   -1.5824   23.1795   10.8502 C   0  0  0  0  0  0  0  0  0  0  0  0
   -0.8551   23.5463   12.1491 C   0  0  0  0  0  0  0  0  0  0  0  0
   -1.0780   25.0277   12.4857 C   0  0  0  0  0  0  0  0  0  0  0  0
   -0.6321   25.9351   11.3273 C   0  0  0  0  0  0  0  0  0  0  0  0
    4.6903   25.7129    5.8380 C   0  0  0  0  0  0  0  0  0  0  0  0
    4.6667   25.1395    7.1233 C   0  0  0  0  0  0  0  0  0  0  0  0
    3.9496   25.7658    8.1576 C   0  0  0  0  0  0  0  0  0  0  0  0
    3.2460   26.9556    7.8985 C   0  0  0  0  0  0  0  0  0  0  0  0
    0.6302   28.2313    7.4508 N   0  0  0  0  0  0  0  0  0  0  0  0
   -0.4898   28.6252    8.0923 C   0  0  0  0  0  0  0  0  0  0  0  0
   -1.1796   27.7315    8.8832 O   0  0  0  0  0  0  0  0  0  0  0  0
   -0.8660   29.9818    8.0000 C   0  0  0  0  0  0  0  0  0  0  0  0
   -1.9251   30.7129    8.5212 N   0  0  0  0  0  0  0  0  0  0  0  0
   -0.5542   32.0464    7.3306 N   0  0  0  0  0  0  0  0  0  0  0  0
   -0.0249   30.7863    7.2610 C   0  0  0  0  0  0  0  0  0  0  0  0
    1.1172   30.4049    6.6113 N   0  0  0  0  0  0  0  0  0  0  0  0
    2.5827   28.6807    6.3360 N   0  0  0  0  0  0  0  0  0  0  0  0
    3.2365   27.5251    6.6032 C   0  0  0  0  0  0  0  0  0  0  0  0
    3.9871   26.9068    5.5819 C   0  0  0  0  0  0  0  0  0  0  0  0
    3.9347   25.0874    9.7381 S   0  0  0  0  0  0  0  0  0  0  0  0
    2.9329   26.1133   10.8427 C   0  0  0  0  0  0  0  0  0  0  0  0
    0.9058   28.8482    5.8406 H   0  0  0  0  0  0  0  0  0  0  0  0
   -2.3473   32.7449    8.2886 H   0  0  0  0  0  0  0  0  0  0  0  0
    0.3548   26.3504    8.8841 H   0  0  0  0  0  0  0  0  0  0  0  0
   -1.0756   25.9287    7.8828 H   0  0  0  0  0  0  0  0  0  0  0  0
   -2.3913   25.7635   10.0760 H   0  0  0  0  0  0  0  0  0  0  0  0
   -1.7056   23.7998    8.7901 H   0  0  0  0  0  0  0  0  0  0  0  0
   -0.0549   23.8683    9.4951 H   0  0  0  0  0  0  0  0  0  0  0  0
   -2.6643   23.3154   10.9950 H   0  0  0  0  0  0  0  0  0  0  0  0
   -1.3742   22.1268   10.6083 H   0  0  0  0  0  0  0  0  0  0  0  0
   -1.2434   22.9254   12.9699 H   0  0  0  0  0  0  0  0  0  0  0  0
    0.2221   23.3603   12.0266 H   0  0  0  0  0  0  0  0  0  0  0  0
   -2.1477   25.1942   12.6804 H   0  0  0  0  0  0  0  0  0  0  0  0
   -0.4976   25.2825   13.3847 H   0  0  0  0  0  0  0  0  0  0  0  0
    0.4575   25.8452   11.2064 H   0  0  0  0  0  0  0  0  0  0  0  0
   -0.8891   26.9759   11.5737 H   0  0  0  0  0  0  0  0  0  0  0  0
    5.2489   25.2365    5.0459 H   0  0  0  0  0  0  0  0  0  0  0  0
    5.1989   24.2194    7.3147 H   0  0  0  0  0  0  0  0  0  0  0  0
    2.7061   27.4407    8.6982 H   0  0  0  0  0  0  0  0  0  0  0  0
    4.7300   27.6448    5.2450 H   0  0  0  0  0  0  0  0  0  0  0  0
    3.2866   26.6910    4.7617 H   0  0  0  0  0  0  0  0  0  0  0  0
    2.9290   25.6723   11.8504 H   0  0  0  0  0  0  0  0  0  0  0  0
    3.3582   27.1268   10.8878 H   0  0  0  0  0  0  0  0  0  0  0  0
    1.9025   26.1647   10.4611 H   0  0  0  0  0  0  0  0  0  0  0  0
  1 14  1  0  0  0  0
  1 21  1  0  0  0  0
  1 22  1  0  0  0  0
  2 18  1  0  0  0  0
  2 19  2  0  0  0  0
  3  4  1  0  0  0  0
  3 16  1  0  0  0  0
  4  5  1  0  0  0  0
  4  9  1  0  0  0  0
  5  6  1  0  0  0  0
  6  7  1  0  0  0  0
  7  8  1  0  0  0  0
  8  9  1  0  0  0  0
 10 11  2  0  0  0  0
 10 24  1  0  0  0  0
 11 12  1  0  0  0  0
 12 13  2  0  0  0  0
 12 25  1  0  0  0  0
 13 23  1  0  0  0  0
 14 15  2  0  0  0  0
 15 16  1  0  0  0  0
 15 17  1  0  0  0  0
 17 18  2  0  0  0  0
 17 20  1  0  0  0  0
 19 20  1  0  0  0  0
 20 21  2  0  0  0  0
 22 23  2  3  0  0  0
 23 24  1  0  0  0  0
 25 26  1  0  0  0  0
  1 27  1  0  0  0  0
  2 28  1  0  0  0  0
  3 29  1  0  0  0  0
  3 30  1  0  0  0  0
  4 31  1  0  0  0  0
  5 32  1  0  0  0  0
  5 33  1  0  0  0  0
  6 34  1  0  0  0  0
  6 35  1  0  0  0  0
  7 36  1  0  0  0  0
  7 37  1  0  0  0  0
  8 38  1  0  0  0  0
  8 39  1  0  0  0  0
  9 40  1  0  0  0  0
  9 41  1  0  0  0  0
 10 42  1  0  0  0  0
 11 43  1  0  0  0  0
 13 44  1  0  0  0  0
 24 45  1  0  0  0  0
 24 46  1  0  0  0  0
 26 47  1  0  0  0  0
 26 48  1  0  0  0  0
 26 49  1  0  0  0  0
M  END
> <r_user_dG.exp>
-7.862

$$$$
22
  -OEChem-05192314073D
 Structure written by MMmdl.
 49 52  0     1  0  0  0  0  0999 V2000
    1.3901   29.1077    6.7935 C   0  0  3  0  0  0  0  0  0  0  0  0
   -1.6911   31.9130    8.0794 C   0  0  0  0  0  0  0  0  0  0  0  0
   -0.7437   26.3748    8.8319 C   0  0  0  0  0  0  0  0  0  0  0  0
   -1.3142   25.5567    9.9914 C   0  0  0  0  0  0  0  0  0  0  0  0
   -1.1214   24.0589    9.6854 C   0  0  0  0  0  0  0  0  0  0  0  0
   -1.5824   23.1795   10.8502 C   0  0  0  0  0  0  0  0  0  0  0  0
   -0.8551   23.5463   12.1491 C   0  0  0  0  0  0  0  0  0  0  0  0
   -1.0780   25.0277   12.4857 C   0  0  0  0  0  0  0  0  0  0  0  0
   -0.6321   25.9351   11.3273 C   0  0  0  0  0  0  0  0  0  0  0  0
    4.6903   25.7129    5.8380 C   0  0  0  0  0  0  0  0  0  0  0  0
    4.6667   25.1395    7.1233 C   0  0  0  0  0  0  0  0  0  0  0  0
    3.9496   25.7658    8.1576 C   0  0  0  0  0  0  0  0  0  0  0  0
    3.2460   26.9556    7.8985 C   0  0  0  0  0  0  0  0  0  0  0  0
    0.6302   28.2313    7.4508 N   0  0  0  0  0  0  0  0  0  0  0  0
   -0.4898   28.6252    8.0923 C   0  0  0  0  0  0  0  0  0  0  0  0
   -1.1796   27.7315    8.8832 O   0  0  0  0  0  0  0  0  0  0  0  0
   -0.8660   29.9818    8.0000 C   0  0  0  0  0  0  0  0  0  0  0  0
   -1.9251   30.7129    8.5212 N   0  0  0  0  0  0  0  0  0  0  0  0
   -0.5542   32.0464    7.3306 N   0  0  0  0  0  0  0  0  0  0  0  0
   -0.0249   30.7863    7.2610 C   0  0  0  0  0  0  0  0  0  0  0  0
    1.1172   30.4049    6.6113 N   0  0  0  0  0  0  0  0  0  0  0  0
    2.5827   28.6807    6.3360 N   0  0  0  0  0  0  0  0  0  0  0  0
    3.2365   27.5251    6.6032 C   0  0  0  0  0  0  0  0  0  0  0  0
    3.9871   26.9068    5.5819 C   0  0  0  0  0  0  0  0  0  0  0  0
    3.9347   25.0874    9.7381 S   0  0  0  0  0  0  0  0  0  0  0  0
    2.9329   26.1133   10.8427 C   0  0  0  0  0  0  0  0  0  0  0  0
    0.9058   28.8482    5.8406 H   0  0  0  0  0  0  0  0  0  0  0  0
   -2.3473   32.7449    8.2886 H   0  0  0  0  0  0  0  0  0  0  0  0
    0.3548   26.3504    8.8841 H   0  0  0  0  0  0  0  0  0  0  0  0
   -1.0756   25.9287    7.8828 H   0  0  0  0  0  0  0  0  0  0  0  0
   -2.3913   25.7635   10.0760 H   0  0  0  0  0  0  0  0  0  0  0  0
   -1.7056   23.7998    8.7901 H   0  0  0  0  0  0  0  0  0  0  0  0
   -0.0549   23.8683    9.4951 H   0  0  0  0  0  0  0  0  0  0  0  0
   -2.6643   23.3154   10.9950 H   0  0  0  0  0  0  0  0  0  0  0  0
   -1.3742   22.1268   10.6083 H   0  0  0  0  0  0  0  0  0  0  0  0
   -1.2434   22.9254   12.9699 H   0  0  0  0  0  0  0  0  0  0  0  0
    0.2221   23.3603   12.0266 H   0  0  0  0  0  0  0  0  0  0  0  0
   -2.1477   25.1942   12.6804 H   0  0  0  0  0  0  0  0  0  0  0  0
   -0.4976   25.2825   13.3847 H   0  0  0  0  0  0  0  0  0  0  0  0
    0.4575   25.8452   11.2064 H   0  0  0  0  0  0  0  0  0  0  0  0
   -0.8891   26.9759   11.5737 H   0  0  0  0  0  0  0  0  0  0  0  0
    5.2489   25.2365    5.0459 H   0  0  0  0  0  0  0  0  0  0  0  0
    5.1989   24.2194    7.3147 H   0  0  0  0  0  0  0  0  0  0  0  0
    2.1960   26.7631    8.1641 H   0  0  0  0  0  0  0  0  0  0  0  0
    3.6610   27.7186    8.5734 H   0  0  0  0  0  0  0  0  0  0  0  0
    4.0232   27.3508    4.5981 H   0  0  0  0  0  0  0  0  0  0  0  0
    2.9290   25.6723   11.8504 H   0  0  0  0  0  0  0  0  0  0  0  0
    3.3582   27.1268   10.8878 H   0  0  0  0  0  0  0  0  0  0  0  0
    1.9025   26.1647   10.4611 H   0  0  0  0  0  0  0  0  0  0  0  0
  1 14  1  0  0  0  0
  1 21  1  0  0  0  0
  1 22  1  0  0  0  0
  2 18  1  0  0  0  0
  2 19  2  0  0  0  0
  3  4  1  0  0  0  0
  3 16  1  0  0  0  0
  4  5  1  0  0  0  0
  4  9  1  0  0  0  0
  5  6  1  0  0  0  0
  6  7  1  0  0  0  0
  7  8  1  0  0  0  0
  8  9  1  0  0  0  0
 10 11  1  0  0  0  0
 10 24  2  0  0  0  0
 11 12  2  0  0  0  0
 12 13  1  0  0  0  0
 12 25  1  0  0  0  0
 13 23  1  0  0  0  0
 14 15  2  0  0  0  0
 15 16  1  0  0  0  0
 15 17  1  0  0  0  0
 17 18  2  0  0  0  0
 17 20  1  0  0  0  0
 19 20  1  0  0  0  0
 20 21  2  0  0  0  0
 22 23  2  3  0  0  0
 23 24  1  0  0  0  0
 25 26  1  0  0  0  0
  1 27  1  0  0  0  0
  2 28  1  0  0  0  0
  3 29  1  0  0  0  0
  3 30  1  0  0  0  0
  4 31  1  0  0  0  0
  5 32  1  0  0  0  0
  5 33  1  0  0  0  0
  6 34  1  0  0  0  0
  6 35  1  0  0  0  0
  7 36  1  0  0  0  0
  7 37  1  0  0  0  0
  8 38  1  0  0  0  0
  8 39  1  0  0  0  0
  9 40  1  0  0  0  0
  9 41  1  0  0  0  0
 10 42  1  0  0  0  0
 11 43  1  0  0  0  0
 13 44  1  0  0  0  0
 13 45  1  0  0  0  0
 24 46  1  0  0  0  0
 26 47  1  0  0  0  0
 26 48  1  0  0  0  0
 26 49  1  0  0  0  0
M  END
> <r_user_dG.exp>
-7.862

$$$$
