29
  -OEChem-05162309453D
 Structure written by MMmdl.
 56 59  0     0  0  0  0  0  0999 V2000
    1.3901   29.1077    6.7935 C   0  0  0  0  0  0  0  0  0  0  0  0
   -1.6911   31.9130    8.0794 C   0  0  0  0  0  0  0  0  0  0  0  0
   -0.7437   26.3748    8.8319 C   0  0  0  0  0  0  0  0  0  0  0  0
   -1.3142   25.5567    9.9914 C   0  0  0  0  0  0  0  0  0  0  0  0
   -1.1214   24.0589    9.6854 C   0  0  0  0  0  0  0  0  0  0  0  0
   -1.5824   23.1795   10.8502 C   0  0  0  0  0  0  0  0  0  0  0  0
   -0.8551   23.5463   12.1491 C   0  0  0  0  0  0  0  0  0  0  0  0
   -1.0780   25.0277   12.4857 C   0  0  0  0  0  0  0  0  0  0  0  0
   -0.6321   25.9351   11.3273 C   0  0  0  0  0  0  0  0  0  0  0  0
    4.6903   25.7129    5.8380 C   0  0  0  0  0  0  0  0  0  0  0  0
    4.6667   25.1395    7.1233 C   0  0  0  0  0  0  0  0  0  0  0  0
    3.9496   25.7658    8.1576 C   0  0  0  0  0  0  0  0  0  0  0  0
    3.2460   26.9556    7.8985 C   0  0  0  0  0  0  0  0  0  0  0  0
    0.6302   28.2313    7.4508 N   0  0  0  0  0  0  0  0  0  0  0  0
   -0.4898   28.6252    8.0923 C   0  0  0  0  0  0  0  0  0  0  0  0
   -1.1796   27.7315    8.8832 O   0  0  0  0  0  0  0  0  0  0  0  0
   -0.8660   29.9818    8.0000 C   0  0  0  0  0  0  0  0  0  0  0  0
   -1.9251   30.7129    8.5212 N   0  0  0  0  0  0  0  0  0  0  0  0
   -0.5542   32.0464    7.3306 N   0  0  0  0  0  0  0  0  0  0  0  0
   -0.0249   30.7863    7.2610 C   0  0  0  0  0  0  0  0  0  0  0  0
    1.1172   30.4049    6.6113 N   0  0  0  0  0  0  0  0  0  0  0  0
    2.5827   28.6807    6.3360 N   0  0  0  0  0  0  0  0  0  0  0  0
    3.2365   27.5251    6.6032 C   0  0  0  0  0  0  0  0  0  0  0  0
    3.9871   26.9068    5.5819 C   0  0  0  0  0  0  0  0  0  0  0  0
    5.4311   23.8790    7.4001 S   0  0  0  0  0  0  0  0  0  0  0  0
    5.8108   23.2938    6.1199 O   0  0  0  0  0  0  0  0  0  0  0  0
    6.4234   24.1721    8.4274 O   0  0  0  0  0  0  0  0  0  0  0  0
    4.4921   22.8906    8.0257 N   0  0  0  0  0  0  0  0  0  0  0  0
    3.8604   21.8742    7.2087 C   0  0  0  0  0  0  0  0  0  0  0  0
    4.2167   22.9522    9.4469 C   0  0  0  0  0  0  0  0  0  0  0  0
   -2.3473   32.7449    8.2886 H   0  0  0  0  0  0  0  0  0  0  0  0
    0.3548   26.3504    8.8841 H   0  0  0  0  0  0  0  0  0  0  0  0
   -1.0756   25.9287    7.8828 H   0  0  0  0  0  0  0  0  0  0  0  0
   -2.3913   25.7635   10.0760 H   0  0  0  0  0  0  0  0  0  0  0  0
   -1.7056   23.7998    8.7901 H   0  0  0  0  0  0  0  0  0  0  0  0
   -0.0549   23.8683    9.4951 H   0  0  0  0  0  0  0  0  0  0  0  0
   -2.6643   23.3154   10.9950 H   0  0  0  0  0  0  0  0  0  0  0  0
   -1.3742   22.1268   10.6083 H   0  0  0  0  0  0  0  0  0  0  0  0
   -1.2434   22.9254   12.9699 H   0  0  0  0  0  0  0  0  0  0  0  0
    0.2221   23.3603   12.0266 H   0  0  0  0  0  0  0  0  0  0  0  0
   -2.1477   25.1942   12.6804 H   0  0  0  0  0  0  0  0  0  0  0  0
   -0.4976   25.2825   13.3847 H   0  0  0  0  0  0  0  0  0  0  0  0
    0.4575   25.8452   11.2064 H   0  0  0  0  0  0  0  0  0  0  0  0
   -0.8891   26.9759   11.5737 H   0  0  0  0  0  0  0  0  0  0  0  0
    5.2489   25.2365    5.0459 H   0  0  0  0  0  0  0  0  0  0  0  0
    3.9391   25.3347    9.1478 H   0  0  0  0  0  0  0  0  0  0  0  0
    2.7061   27.4407    8.6982 H   0  0  0  0  0  0  0  0  0  0  0  0
   -2.6805   30.3952    9.0943 H   0  0  0  0  0  0  0  0  0  0  0  0
    3.0515   29.3048    5.7110 H   0  0  0  0  0  0  0  0  0  0  0  0
    4.0232   27.3508    4.5981 H   0  0  0  0  0  0  0  0  0  0  0  0
    3.2118   21.2476    7.8385 H   0  0  0  0  0  0  0  0  0  0  0  0
    3.2563   22.3563    6.4260 H   0  0  0  0  0  0  0  0  0  0  0  0
    4.6336   21.2471    6.7409 H   0  0  0  0  0  0  0  0  0  0  0  0
    3.5112   22.1534    9.7192 H   0  0  0  0  0  0  0  0  0  0  0  0
    5.1537   22.8206   10.0079 H   0  0  0  0  0  0  0  0  0  0  0  0
    3.7763   23.9297    9.6929 H   0  0  0  0  0  0  0  0  0  0  0  0
  1 14  2  0  0  0  0
  1 21  1  0  0  0  0
  1 22  1  0  0  0  0
  2 18  1  0  0  0  0
  2 19  2  0  0  0  0
  3  4  1  0  0  0  0
  3 16  1  0  0  0  0
  4  5  1  0  0  0  0
  4  9  1  0  0  0  0
  5  6  1  0  0  0  0
  6  7  1  0  0  0  0
  7  8  1  0  0  0  0
  8  9  1  0  0  0  0
 10 11  2  0  0  0  0
 10 24  1  0  0  0  0
 11 12  1  0  0  0  0
 11 25  1  0  0  0  0
 12 13  2  0  0  0  0
 13 23  1  0  0  0  0
 14 15  1  0  0  0  0
 15 16  1  0  0  0  0
 15 17  2  0  0  0  0
 17 18  1  0  0  0  0
 17 20  1  0  0  0  0
 19 20  1  0  0  0  0
 20 21  2  0  0  0  0
 22 23  1  0  0  0  0
 23 24  2  0  0  0  0
 25 26  2  0  0  0  0
 25 27  2  0  0  0  0
 25 28  1  0  0  0  0
 28 29  1  0  0  0  0
 28 30  1  0  0  0  0
  2 31  1  0  0  0  0
  3 32  1  0  0  0  0
  3 33  1  0  0  0  0
  4 34  1  0  0  0  0
  5 35  1  0  0  0  0
  5 36  1  0  0  0  0
  6 37  1  0  0  0  0
  6 38  1  0  0  0  0
  7 39  1  0  0  0  0
  7 40  1  0  0  0  0
  8 41  1  0  0  0  0
  8 42  1  0  0  0  0
  9 43  1  0  0  0  0
  9 44  1  0  0  0  0
 10 45  1  0  0  0  0
 12 46  1  0  0  0  0
 13 47  1  0  0  0  0
 18 48  1  0  0  0  0
 22 49  1  0  0  0  0
 24 50  1  0  0  0  0
 29 51  1  0  0  0  0
 29 52  1  0  0  0  0
 29 53  1  0  0  0  0
 30 54  1  0  0  0  0
 30 55  1  0  0  0  0
 30 56  1  0  0  0  0
M  END
> <r_user_dG.exp>
-9.882

$$$$
29
  -OEChem-05162309453D
 Structure written by MMmdl.
 56 59  0     0  0  0  0  0  0999 V2000
    1.3901   29.1077    6.7935 C   0  0  0  0  0  0  0  0  0  0  0  0
   -1.6911   31.9130    8.0794 C   0  0  0  0  0  0  0  0  0  0  0  0
   -0.7437   26.3748    8.8319 C   0  0  0  0  0  0  0  0  0  0  0  0
   -1.3142   25.5567    9.9914 C   0  0  0  0  0  0  0  0  0  0  0  0
   -1.1214   24.0589    9.6854 C   0  0  0  0  0  0  0  0  0  0  0  0
   -1.5824   23.1795   10.8502 C   0  0  0  0  0  0  0  0  0  0  0  0
   -0.8551   23.5463   12.1491 C   0  0  0  0  0  0  0  0  0  0  0  0
   -1.0780   25.0277   12.4857 C   0  0  0  0  0  0  0  0  0  0  0  0
   -0.6321   25.9351   11.3273 C   0  0  0  0  0  0  0  0  0  0  0  0
    4.6903   25.7129    5.8380 C   0  0  0  0  0  0  0  0  0  0  0  0
    4.6667   25.1395    7.1233 C   0  0  0  0  0  0  0  0  0  0  0  0
    3.9496   25.7658    8.1576 C   0  0  0  0  0  0  0  0  0  0  0  0
    3.2460   26.9556    7.8985 C   0  0  0  0  0  0  0  0  0  0  0  0
    0.6302   28.2313    7.4508 N   0  0  0  0  0  0  0  0  0  0  0  0
   -0.4898   28.6252    8.0923 C   0  0  0  0  0  0  0  0  0  0  0  0
   -1.1796   27.7315    8.8832 O   0  0  0  0  0  0  0  0  0  0  0  0
   -0.8660   29.9818    8.0000 C   0  0  0  0  0  0  0  0  0  0  0  0
   -1.9251   30.7129    8.5212 N   0  0  0  0  0  0  0  0  0  0  0  0
   -0.5542   32.0464    7.3306 N   0  0  0  0  0  0  0  0  0  0  0  0
   -0.0249   30.7863    7.2610 C   0  0  0  0  0  0  0  0  0  0  0  0
    1.1172   30.4049    6.6113 N   0  0  0  0  0  0  0  0  0  0  0  0
    2.5827   28.6807    6.3360 N   0  0  0  0  0  0  0  0  0  0  0  0
    3.2365   27.5251    6.6032 C   0  0  0  0  0  0  0  0  0  0  0  0
    3.9871   26.9068    5.5819 C   0  0  0  0  0  0  0  0  0  0  0  0
    5.4311   23.8790    7.4001 S   0  0  0  0  0  0  0  0  0  0  0  0
    5.8108   23.2938    6.1199 O   0  0  0  0  0  0  0  0  0  0  0  0
    6.4234   24.1721    8.4274 O   0  0  0  0  0  0  0  0  0  0  0  0
    4.4921   22.8906    8.0257 N   0  0  0  0  0  0  0  0  0  0  0  0
    3.8604   21.8742    7.2087 C   0  0  0  0  0  0  0  0  0  0  0  0
    4.2167   22.9522    9.4469 C   0  0  0  0  0  0  0  0  0  0  0  0
   -2.3473   32.7449    8.2886 H   0  0  0  0  0  0  0  0  0  0  0  0
    0.3548   26.3504    8.8841 H   0  0  0  0  0  0  0  0  0  0  0  0
   -1.0756   25.9287    7.8828 H   0  0  0  0  0  0  0  0  0  0  0  0
   -2.3913   25.7635   10.0760 H   0  0  0  0  0  0  0  0  0  0  0  0
   -1.7056   23.7998    8.7901 H   0  0  0  0  0  0  0  0  0  0  0  0
   -0.0549   23.8683    9.4951 H   0  0  0  0  0  0  0  0  0  0  0  0
   -2.6643   23.3154   10.9950 H   0  0  0  0  0  0  0  0  0  0  0  0
   -1.3742   22.1268   10.6083 H   0  0  0  0  0  0  0  0  0  0  0  0
   -1.2434   22.9254   12.9699 H   0  0  0  0  0  0  0  0  0  0  0  0
    0.2221   23.3603   12.0266 H   0  0  0  0  0  0  0  0  0  0  0  0
   -2.1477   25.1942   12.6804 H   0  0  0  0  0  0  0  0  0  0  0  0
   -0.4976   25.2825   13.3847 H   0  0  0  0  0  0  0  0  0  0  0  0
    0.4575   25.8452   11.2064 H   0  0  0  0  0  0  0  0  0  0  0  0
   -0.8891   26.9759   11.5737 H   0  0  0  0  0  0  0  0  0  0  0  0
    5.2489   25.2365    5.0459 H   0  0  0  0  0  0  0  0  0  0  0  0
    3.9391   25.3347    9.1478 H   0  0  0  0  0  0  0  0  0  0  0  0
    2.7061   27.4407    8.6982 H   0  0  0  0  0  0  0  0  0  0  0  0
   -0.1890   32.8832    6.9226 H   0  0  0  0  0  0  0  0  0  0  0  0
    3.0515   29.3048    5.7110 H   0  0  0  0  0  0  0  0  0  0  0  0
    4.0232   27.3508    4.5981 H   0  0  0  0  0  0  0  0  0  0  0  0
    3.2118   21.2476    7.8385 H   0  0  0  0  0  0  0  0  0  0  0  0
    3.2563   22.3563    6.4260 H   0  0  0  0  0  0  0  0  0  0  0  0
    4.6336   21.2471    6.7409 H   0  0  0  0  0  0  0  0  0  0  0  0
    3.5112   22.1534    9.7192 H   0  0  0  0  0  0  0  0  0  0  0  0
    5.1537   22.8206   10.0079 H   0  0  0  0  0  0  0  0  0  0  0  0
    3.7763   23.9297    9.6929 H   0  0  0  0  0  0  0  0  0  0  0  0
  1 14  2  0  0  0  0
  1 21  1  0  0  0  0
  1 22  1  0  0  0  0
  2 18  2  0  0  0  0
  2 19  1  0  0  0  0
  3  4  1  0  0  0  0
  3 16  1  0  0  0  0
  4  5  1  0  0  0  0
  4  9  1  0  0  0  0
  5  6  1  0  0  0  0
  6  7  1  0  0  0  0
  7  8  1  0  0  0  0
  8  9  1  0  0  0  0
 10 11  2  0  0  0  0
 10 24  1  0  0  0  0
 11 12  1  0  0  0  0
 11 25  1  0  0  0  0
 12 13  2  0  0  0  0
 13 23  1  0  0  0  0
 14 15  1  0  0  0  0
 15 16  1  0  0  0  0
 15 17  2  0  0  0  0
 17 18  1  0  0  0  0
 17 20  1  0  0  0  0
 19 20  1  0  0  0  0
 20 21  2  0  0  0  0
 22 23  1  0  0  0  0
 23 24  2  0  0  0  0
 25 26  2  0  0  0  0
 25 27  2  0  0  0  0
 25 28  1  0  0  0  0
 28 29  1  0  0  0  0
 28 30  1  0  0  0  0
  2 31  1  0  0  0  0
  3 32  1  0  0  0  0
  3 33  1  0  0  0  0
  4 34  1  0  0  0  0
  5 35  1  0  0  0  0
  5 36  1  0  0  0  0
  6 37  1  0  0  0  0
  6 38  1  0  0  0  0
  7 39  1  0  0  0  0
  7 40  1  0  0  0  0
  8 41  1  0  0  0  0
  8 42  1  0  0  0  0
  9 43  1  0  0  0  0
  9 44  1  0  0  0  0
 10 45  1  0  0  0  0
 12 46  1  0  0  0  0
 13 47  1  0  0  0  0
 19 48  1  0  0  0  0
 22 49  1  0  0  0  0
 24 50  1  0  0  0  0
 29 51  1  0  0  0  0
 29 52  1  0  0  0  0
 29 53  1  0  0  0  0
 30 54  1  0  0  0  0
 30 55  1  0  0  0  0
 30 56  1  0  0  0  0
M  END
> <r_user_dG.exp>
-9.882

$$$$
29
  -OEChem-05162309453D
 Structure written by MMmdl.
 56 59  0     0  0  0  0  0  0999 V2000
    1.3901   29.1077    6.7935 C   0  0  0  0  0  0  0  0  0  0  0  0
   -1.6911   31.9130    8.0794 C   0  0  0  0  0  0  0  0  0  0  0  0
   -0.7437   26.3748    8.8319 C   0  0  0  0  0  0  0  0  0  0  0  0
   -1.3142   25.5567    9.9914 C   0  0  0  0  0  0  0  0  0  0  0  0
   -1.1214   24.0589    9.6854 C   0  0  0  0  0  0  0  0  0  0  0  0
   -1.5824   23.1795   10.8502 C   0  0  0  0  0  0  0  0  0  0  0  0
   -0.8551   23.5463   12.1491 C   0  0  0  0  0  0  0  0  0  0  0  0
   -1.0780   25.0277   12.4857 C   0  0  0  0  0  0  0  0  0  0  0  0
   -0.6321   25.9351   11.3273 C   0  0  0  0  0  0  0  0  0  0  0  0
    4.6903   25.7129    5.8380 C   0  0  0  0  0  0  0  0  0  0  0  0
    4.6667   25.1395    7.1233 C   0  0  0  0  0  0  0  0  0  0  0  0
    3.9496   25.7658    8.1576 C   0  0  0  0  0  0  0  0  0  0  0  0
    3.2460   26.9556    7.8985 C   0  0  0  0  0  0  0  0  0  0  0  0
    0.6302   28.2313    7.4508 N   0  0  0  0  0  0  0  0  0  0  0  0
   -0.4898   28.6252    8.0923 C   0  0  0  0  0  0  0  0  0  0  0  0
   -1.1796   27.7315    8.8832 O   0  0  0  0  0  0  0  0  0  0  0  0
   -0.8660   29.9818    8.0000 C   0  0  0  0  0  0  0  0  0  0  0  0
   -1.9251   30.7129    8.5212 N   0  0  0  0  0  0  0  0  0  0  0  0
   -0.5542   32.0464    7.3306 N   0  0  0  0  0  0  0  0  0  0  0  0
   -0.0249   30.7863    7.2610 C   0  0  0  0  0  0  0  0  0  0  0  0
    1.1172   30.4049    6.6113 N   0  0  0  0  0  0  0  0  0  0  0  0
    2.5827   28.6807    6.3360 N   0  0  0  0  0  0  0  0  0  0  0  0
    3.2365   27.5251    6.6032 C   0  0  0  0  0  0  0  0  0  0  0  0
    3.9871   26.9068    5.5819 C   0  0  0  0  0  0  0  0  0  0  0  0
    5.4311   23.8790    7.4001 S   0  0  0  0  0  0  0  0  0  0  0  0
    5.8108   23.2938    6.1199 O   0  0  0  0  0  0  0  0  0  0  0  0
    6.4234   24.1721    8.4274 O   0  0  0  0  0  0  0  0  0  0  0  0
    4.4921   22.8906    8.0257 N   0  0  0  0  0  0  0  0  0  0  0  0
    3.8604   21.8742    7.2087 C   0  0  0  0  0  0  0  0  0  0  0  0
    4.2167   22.9522    9.4469 C   0  0  0  0  0  0  0  0  0  0  0  0
   -2.3473   32.7449    8.2886 H   0  0  0  0  0  0  0  0  0  0  0  0
    0.3548   26.3504    8.8841 H   0  0  0  0  0  0  0  0  0  0  0  0
   -1.0756   25.9287    7.8828 H   0  0  0  0  0  0  0  0  0  0  0  0
   -2.3913   25.7635   10.0760 H   0  0  0  0  0  0  0  0  0  0  0  0
   -1.7056   23.7998    8.7901 H   0  0  0  0  0  0  0  0  0  0  0  0
   -0.0549   23.8683    9.4951 H   0  0  0  0  0  0  0  0  0  0  0  0
   -2.6643   23.3154   10.9950 H   0  0  0  0  0  0  0  0  0  0  0  0
   -1.3742   22.1268   10.6083 H   0  0  0  0  0  0  0  0  0  0  0  0
   -1.2434   22.9254   12.9699 H   0  0  0  0  0  0  0  0  0  0  0  0
    0.2221   23.3603   12.0266 H   0  0  0  0  0  0  0  0  0  0  0  0
   -2.1477   25.1942   12.6804 H   0  0  0  0  0  0  0  0  0  0  0  0
   -0.4976   25.2825   13.3847 H   0  0  0  0  0  0  0  0  0  0  0  0
    0.4575   25.8452   11.2064 H   0  0  0  0  0  0  0  0  0  0  0  0
   -0.8891   26.9759   11.5737 H   0  0  0  0  0  0  0  0  0  0  0  0
    5.2489   25.2365    5.0459 H   0  0  0  0  0  0  0  0  0  0  0  0
    3.9391   25.3347    9.1478 H   0  0  0  0  0  0  0  0  0  0  0  0
    2.7061   27.4407    8.6982 H   0  0  0  0  0  0  0  0  0  0  0  0
   -2.6805   30.3952    9.0943 H   0  0  0  0  0  0  0  0  0  0  0  0
    1.6818   31.0231    6.0644 H   0  0  0  0  0  0  0  0  0  0  0  0
    4.0232   27.3508    4.5981 H   0  0  0  0  0  0  0  0  0  0  0  0
    3.2118   21.2476    7.8385 H   0  0  0  0  0  0  0  0  0  0  0  0
    3.2563   22.3563    6.4260 H   0  0  0  0  0  0  0  0  0  0  0  0
    4.6336   21.2471    6.7409 H   0  0  0  0  0  0  0  0  0  0  0  0
    3.5112   22.1534    9.7192 H   0  0  0  0  0  0  0  0  0  0  0  0
    5.1537   22.8206   10.0079 H   0  0  0  0  0  0  0  0  0  0  0  0
    3.7763   23.9297    9.6929 H   0  0  0  0  0  0  0  0  0  0  0  0
  1 14  1  0  0  0  0
  1 21  1  0  0  0  0
  1 22  2  0  0  0  0
  2 18  1  0  0  0  0
  2 19  2  0  0  0  0
  3  4  1  0  0  0  0
  3 16  1  0  0  0  0
  4  5  1  0  0  0  0
  4  9  1  0  0  0  0
  5  6  1  0  0  0  0
  6  7  1  0  0  0  0
  7  8  1  0  0  0  0
  8  9  1  0  0  0  0
 10 11  2  0  0  0  0
 10 24  1  0  0  0  0
 11 12  1  0  0  0  0
 11 25  1  0  0  0  0
 12 13  2  0  0  0  0
 13 23  1  0  0  0  0
 14 15  2  0  0  0  0
 15 16  1  0  0  0  0
 15 17  1  0  0  0  0
 17 18  1  0  0  0  0
 17 20  2  0  0  0  0
 19 20  1  0  0  0  0
 20 21  1  0  0  0  0
 22 23  1  0  0  0  0
 23 24  2  0  0  0  0
 25 26  2  0  0  0  0
 25 27  2  0  0  0  0
 25 28  1  0  0  0  0
 28 29  1  0  0  0  0
 28 30  1  0  0  0  0
  2 31  1  0  0  0  0
  3 32  1  0  0  0  0
  3 33  1  0  0  0  0
  4 34  1  0  0  0  0
  5 35  1  0  0  0  0
  5 36  1  0  0  0  0
  6 37  1  0  0  0  0
  6 38  1  0  0  0  0
  7 39  1  0  0  0  0
  7 40  1  0  0  0  0
  8 41  1  0  0  0  0
  8 42  1  0  0  0  0
  9 43  1  0  0  0  0
  9 44  1  0  0  0  0
 10 45  1  0  0  0  0
 12 46  1  0  0  0  0
 13 47  1  0  0  0  0
 18 48  1  0  0  0  0
 21 49  1  0  0  0  0
 24 50  1  0  0  0  0
 29 51  1  0  0  0  0
 29 52  1  0  0  0  0
 29 53  1  0  0  0  0
 30 54  1  0  0  0  0
 30 55  1  0  0  0  0
 30 56  1  0  0  0  0
M  END
> <r_user_dG.exp>
-9.882

$$$$
29
  -OEChem-05162309453D
 Structure written by MMmdl.
 56 59  0     0  0  0  0  0  0999 V2000
    1.3901   29.1077    6.7935 C   0  0  0  0  0  0  0  0  0  0  0  0
   -1.6911   31.9130    8.0794 C   0  0  0  0  0  0  0  0  0  0  0  0
   -0.7437   26.3748    8.8319 C   0  0  0  0  0  0  0  0  0  0  0  0
   -1.3142   25.5567    9.9914 C   0  0  0  0  0  0  0  0  0  0  0  0
   -1.1214   24.0589    9.6854 C   0  0  0  0  0  0  0  0  0  0  0  0
   -1.5824   23.1795   10.8502 C   0  0  0  0  0  0  0  0  0  0  0  0
   -0.8551   23.5463   12.1491 C   0  0  0  0  0  0  0  0  0  0  0  0
   -1.0780   25.0277   12.4857 C   0  0  0  0  0  0  0  0  0  0  0  0
   -0.6321   25.9351   11.3273 C   0  0  0  0  0  0  0  0  0  0  0  0
    4.6903   25.7129    5.8380 C   0  0  0  0  0  0  0  0  0  0  0  0
    4.6667   25.1395    7.1233 C   0  0  0  0  0  0  0  0  0  0  0  0
    3.9496   25.7658    8.1576 C   0  0  0  0  0  0  0  0  0  0  0  0
    3.2460   26.9556    7.8985 C   0  0  0  0  0  0  0  0  0  0  0  0
    0.6302   28.2313    7.4508 N   0  0  0  0  0  0  0  0  0  0  0  0
   -0.4898   28.6252    8.0923 C   0  0  0  0  0  0  0  0  0  0  0  0
   -1.1796   27.7315    8.8832 O   0  0  0  0  0  0  0  0  0  0  0  0
   -0.8660   29.9818    8.0000 C   0  0  0  0  0  0  0  0  0  0  0  0
   -1.9251   30.7129    8.5212 N   0  0  0  0  0  0  0  0  0  0  0  0
   -0.5542   32.0464    7.3306 N   0  0  0  0  0  0  0  0  0  0  0  0
   -0.0249   30.7863    7.2610 C   0  0  0  0  0  0  0  0  0  0  0  0
    1.1172   30.4049    6.6113 N   0  0  0  0  0  0  0  0  0  0  0  0
    2.5827   28.6807    6.3360 N   0  0  0  0  0  0  0  0  0  0  0  0
    3.2365   27.5251    6.6032 C   0  0  0  0  0  0  0  0  0  0  0  0
    3.9871   26.9068    5.5819 C   0  0  0  0  0  0  0  0  0  0  0  0
    5.4311   23.8790    7.4001 S   0  0  0  0  0  0  0  0  0  0  0  0
    5.8108   23.2938    6.1199 O   0  0  0  0  0  0  0  0  0  0  0  0
    6.4234   24.1721    8.4274 O   0  0  0  0  0  0  0  0  0  0  0  0
    4.4921   22.8906    8.0257 N   0  0  0  0  0  0  0  0  0  0  0  0
    3.8604   21.8742    7.2087 C   0  0  0  0  0  0  0  0  0  0  0  0
    4.2167   22.9522    9.4469 C   0  0  0  0  0  0  0  0  0  0  0  0
   -2.3473   32.7449    8.2886 H   0  0  0  0  0  0  0  0  0  0  0  0
    0.3548   26.3504    8.8841 H   0  0  0  0  0  0  0  0  0  0  0  0
   -1.0756   25.9287    7.8828 H   0  0  0  0  0  0  0  0  0  0  0  0
   -2.3913   25.7635   10.0760 H   0  0  0  0  0  0  0  0  0  0  0  0
   -1.7056   23.7998    8.7901 H   0  0  0  0  0  0  0  0  0  0  0  0
   -0.0549   23.8683    9.4951 H   0  0  0  0  0  0  0  0  0  0  0  0
   -2.6643   23.3154   10.9950 H   0  0  0  0  0  0  0  0  0  0  0  0
   -1.3742   22.1268   10.6083 H   0  0  0  0  0  0  0  0  0  0  0  0
   -1.2434   22.9254   12.9699 H   0  0  0  0  0  0  0  0  0  0  0  0
    0.2221   23.3603   12.0266 H   0  0  0  0  0  0  0  0  0  0  0  0
   -2.1477   25.1942   12.6804 H   0  0  0  0  0  0  0  0  0  0  0  0
   -0.4976   25.2825   13.3847 H   0  0  0  0  0  0  0  0  0  0  0  0
    0.4575   25.8452   11.2064 H   0  0  0  0  0  0  0  0  0  0  0  0
   -0.8891   26.9759   11.5737 H   0  0  0  0  0  0  0  0  0  0  0  0
    5.2489   25.2365    5.0459 H   0  0  0  0  0  0  0  0  0  0  0  0
    3.9391   25.3347    9.1478 H   0  0  0  0  0  0  0  0  0  0  0  0
    2.7061   27.4407    8.6982 H   0  0  0  0  0  0  0  0  0  0  0  0
    0.8943   27.2670    7.4687 H   0  0  0  0  0  0  0  0  0  0  0  0
   -2.6805   30.3952    9.0943 H   0  0  0  0  0  0  0  0  0  0  0  0
    4.0232   27.3508    4.5981 H   0  0  0  0  0  0  0  0  0  0  0  0
    3.2118   21.2476    7.8385 H   0  0  0  0  0  0  0  0  0  0  0  0
    3.2563   22.3563    6.4260 H   0  0  0  0  0  0  0  0  0  0  0  0
    4.6336   21.2471    6.7409 H   0  0  0  0  0  0  0  0  0  0  0  0
    3.5112   22.1534    9.7192 H   0  0  0  0  0  0  0  0  0  0  0  0
    5.1537   22.8206   10.0079 H   0  0  0  0  0  0  0  0  0  0  0  0
    3.7763   23.9297    9.6929 H   0  0  0  0  0  0  0  0  0  0  0  0
  1 14  1  0  0  0  0
  1 21  1  0  0  0  0
  1 22  2  0  0  0  0
  2 18  1  0  0  0  0
  2 19  2  0  0  0  0
  3  4  1  0  0  0  0
  3 16  1  0  0  0  0
  4  5  1  0  0  0  0
  4  9  1  0  0  0  0
  5  6  1  0  0  0  0
  6  7  1  0  0  0  0
  7  8  1  0  0  0  0
  8  9  1  0  0  0  0
 10 11  2  0  0  0  0
 10 24  1  0  0  0  0
 11 12  1  0  0  0  0
 11 25  1  0  0  0  0
 12 13  2  0  0  0  0
 13 23  1  0  0  0  0
 14 15  1  0  0  0  0
 15 16  1  0  0  0  0
 15 17  2  0  0  0  0
 17 18  1  0  0  0  0
 17 20  1  0  0  0  0
 19 20  1  0  0  0  0
 20 21  2  0  0  0  0
 22 23  1  0  0  0  0
 23 24  2  0  0  0  0
 25 26  2  0  0  0  0
 25 27  2  0  0  0  0
 25 28  1  0  0  0  0
 28 29  1  0  0  0  0
 28 30  1  0  0  0  0
  2 31  1  0  0  0  0
  3 32  1  0  0  0  0
  3 33  1  0  0  0  0
  4 34  1  0  0  0  0
  5 35  1  0  0  0  0
  5 36  1  0  0  0  0
  6 37  1  0  0  0  0
  6 38  1  0  0  0  0
  7 39  1  0  0  0  0
  7 40  1  0  0  0  0
  8 41  1  0  0  0  0
  8 42  1  0  0  0  0
  9 43  1  0  0  0  0
  9 44  1  0  0  0  0
 10 45  1  0  0  0  0
 12 46  1  0  0  0  0
 13 47  1  0  0  0  0
 14 48  1  0  0  0  0
 18 49  1  0  0  0  0
 24 50  1  0  0  0  0
 29 51  1  0  0  0  0
 29 52  1  0  0  0  0
 29 53  1  0  0  0  0
 30 54  1  0  0  0  0
 30 55  1  0  0  0  0
 30 56  1  0  0  0  0
M  END
> <r_user_dG.exp>
-9.882

$$$$
29
  -OEChem-05162309453D
 Structure written by MMmdl.
 56 59  0     0  0  0  0  0  0999 V2000
    1.3901   29.1077    6.7935 C   0  0  0  0  0  0  0  0  0  0  0  0
   -1.6911   31.9130    8.0794 C   0  0  0  0  0  0  0  0  0  0  0  0
   -0.7437   26.3748    8.8319 C   0  0  0  0  0  0  0  0  0  0  0  0
   -1.3142   25.5567    9.9914 C   0  0  0  0  0  0  0  0  0  0  0  0
   -1.1214   24.0589    9.6854 C   0  0  0  0  0  0  0  0  0  0  0  0
   -1.5824   23.1795   10.8502 C   0  0  0  0  0  0  0  0  0  0  0  0
   -0.8551   23.5463   12.1491 C   0  0  0  0  0  0  0  0  0  0  0  0
   -1.0780   25.0277   12.4857 C   0  0  0  0  0  0  0  0  0  0  0  0
   -0.6321   25.9351   11.3273 C   0  0  0  0  0  0  0  0  0  0  0  0
    4.6903   25.7129    5.8380 C   0  0  0  0  0  0  0  0  0  0  0  0
    4.6667   25.1395    7.1233 C   0  0  0  0  0  0  0  0  0  0  0  0
    3.9496   25.7658    8.1576 C   0  0  0  0  0  0  0  0  0  0  0  0
    3.2460   26.9556    7.8985 C   0  0  0  0  0  0  0  0  0  0  0  0
    0.6302   28.2313    7.4508 N   0  0  0  0  0  0  0  0  0  0  0  0
   -0.4898   28.6252    8.0923 C   0  0  0  0  0  0  0  0  0  0  0  0
   -1.1796   27.7315    8.8832 O   0  0  0  0  0  0  0  0  0  0  0  0
   -0.8660   29.9818    8.0000 C   0  0  0  0  0  0  0  0  0  0  0  0
   -1.9251   30.7129    8.5212 N   0  0  0  0  0  0  0  0  0  0  0  0
   -0.5542   32.0464    7.3306 N   0  0  0  0  0  0  0  0  0  0  0  0
   -0.0249   30.7863    7.2610 C   0  0  0  0  0  0  0  0  0  0  0  0
    1.1172   30.4049    6.6113 N   0  0  0  0  0  0  0  0  0  0  0  0
    2.5827   28.6807    6.3360 N   0  0  0  0  0  0  0  0  0  0  0  0
    3.2365   27.5251    6.6032 C   0  0  0  0  0  0  0  0  0  0  0  0
    3.9871   26.9068    5.5819 C   0  0  0  0  0  0  0  0  0  0  0  0
    5.4311   23.8790    7.4001 S   0  0  0  0  0  0  0  0  0  0  0  0
    5.8108   23.2938    6.1199 O   0  0  0  0  0  0  0  0  0  0  0  0
    6.4234   24.1721    8.4274 O   0  0  0  0  0  0  0  0  0  0  0  0
    4.4921   22.8906    8.0257 N   0  0  0  0  0  0  0  0  0  0  0  0
    3.8604   21.8742    7.2087 C   0  0  0  0  0  0  0  0  0  0  0  0
    4.2167   22.9522    9.4469 C   0  0  0  0  0  0  0  0  0  0  0  0
   -2.3473   32.7449    8.2886 H   0  0  0  0  0  0  0  0  0  0  0  0
    0.3548   26.3504    8.8841 H   0  0  0  0  0  0  0  0  0  0  0  0
   -1.0756   25.9287    7.8828 H   0  0  0  0  0  0  0  0  0  0  0  0
   -2.3913   25.7635   10.0760 H   0  0  0  0  0  0  0  0  0  0  0  0
   -1.7056   23.7998    8.7901 H   0  0  0  0  0  0  0  0  0  0  0  0
   -0.0549   23.8683    9.4951 H   0  0  0  0  0  0  0  0  0  0  0  0
   -2.6643   23.3154   10.9950 H   0  0  0  0  0  0  0  0  0  0  0  0
   -1.3742   22.1268   10.6083 H   0  0  0  0  0  0  0  0  0  0  0  0
   -1.2434   22.9254   12.9699 H   0  0  0  0  0  0  0  0  0  0  0  0
    0.2221   23.3603   12.0266 H   0  0  0  0  0  0  0  0  0  0  0  0
   -2.1477   25.1942   12.6804 H   0  0  0  0  0  0  0  0  0  0  0  0
   -0.4976   25.2825   13.3847 H   0  0  0  0  0  0  0  0  0  0  0  0
    0.4575   25.8452   11.2064 H   0  0  0  0  0  0  0  0  0  0  0  0
   -0.8891   26.9759   11.5737 H   0  0  0  0  0  0  0  0  0  0  0  0
    5.2489   25.2365    5.0459 H   0  0  0  0  0  0  0  0  0  0  0  0
    3.9391   25.3347    9.1478 H   0  0  0  0  0  0  0  0  0  0  0  0
    2.7061   27.4407    8.6982 H   0  0  0  0  0  0  0  0  0  0  0  0
   -0.1890   32.8832    6.9226 H   0  0  0  0  0  0  0  0  0  0  0  0
    1.6818   31.0231    6.0644 H   0  0  0  0  0  0  0  0  0  0  0  0
    4.0232   27.3508    4.5981 H   0  0  0  0  0  0  0  0  0  0  0  0
    3.2118   21.2476    7.8385 H   0  0  0  0  0  0  0  0  0  0  0  0
    3.2563   22.3563    6.4260 H   0  0  0  0  0  0  0  0  0  0  0  0
    4.6336   21.2471    6.7409 H   0  0  0  0  0  0  0  0  0  0  0  0
    3.5112   22.1534    9.7192 H   0  0  0  0  0  0  0  0  0  0  0  0
    5.1537   22.8206   10.0079 H   0  0  0  0  0  0  0  0  0  0  0  0
    3.7763   23.9297    9.6929 H   0  0  0  0  0  0  0  0  0  0  0  0
  1 14  1  0  0  0  0
  1 21  1  0  0  0  0
  1 22  2  0  0  0  0
  2 18  2  0  0  0  0
  2 19  1  0  0  0  0
  3  4  1  0  0  0  0
  3 16  1  0  0  0  0
  4  5  1  0  0  0  0
  4  9  1  0  0  0  0
  5  6  1  0  0  0  0
  6  7  1  0  0  0  0
  7  8  1  0  0  0  0
  8  9  1  0  0  0  0
 10 11  2  0  0  0  0
 10 24  1  0  0  0  0
 11 12  1  0  0  0  0
 11 25  1  0  0  0  0
 12 13  2  0  0  0  0
 13 23  1  0  0  0  0
 14 15  2  0  0  0  0
 15 16  1  0  0  0  0
 15 17  1  0  0  0  0
 17 18  1  0  0  0  0
 17 20  2  0  0  0  0
 19 20  1  0  0  0  0
 20 21  1  0  0  0  0
 22 23  1  0  0  0  0
 23 24  2  0  0  0  0
 25 26  2  0  0  0  0
 25 27  2  0  0  0  0
 25 28  1  0  0  0  0
 28 29  1  0  0  0  0
 28 30  1  0  0  0  0
  2 31  1  0  0  0  0
  3 32  1  0  0  0  0
  3 33  1  0  0  0  0
  4 34  1  0  0  0  0
  5 35  1  0  0  0  0
  5 36  1  0  0  0  0
  6 37  1  0  0  0  0
  6 38  1  0  0  0  0
  7 39  1  0  0  0  0
  7 40  1  0  0  0  0
  8 41  1  0  0  0  0
  8 42  1  0  0  0  0
  9 43  1  0  0  0  0
  9 44  1  0  0  0  0
 10 45  1  0  0  0  0
 12 46  1  0  0  0  0
 13 47  1  0  0  0  0
 19 48  1  0  0  0  0
 21 49  1  0  0  0  0
 24 50  1  0  0  0  0
 29 51  1  0  0  0  0
 29 52  1  0  0  0  0
 29 53  1  0  0  0  0
 30 54  1  0  0  0  0
 30 55  1  0  0  0  0
 30 56  1  0  0  0  0
M  END
> <r_user_dG.exp>
-9.882

$$$$
29
  -OEChem-05162309453D
 Structure written by MMmdl.
 56 59  0     0  0  0  0  0  0999 V2000
    1.3901   29.1077    6.7935 C   0  0  0  0  0  0  0  0  0  0  0  0
   -1.6911   31.9130    8.0794 C   0  0  0  0  0  0  0  0  0  0  0  0
   -0.7437   26.3748    8.8319 C   0  0  0  0  0  0  0  0  0  0  0  0
   -1.3142   25.5567    9.9914 C   0  0  0  0  0  0  0  0  0  0  0  0
   -1.1214   24.0589    9.6854 C   0  0  0  0  0  0  0  0  0  0  0  0
   -1.5824   23.1795   10.8502 C   0  0  0  0  0  0  0  0  0  0  0  0
   -0.8551   23.5463   12.1491 C   0  0  0  0  0  0  0  0  0  0  0  0
   -1.0780   25.0277   12.4857 C   0  0  0  0  0  0  0  0  0  0  0  0
   -0.6321   25.9351   11.3273 C   0  0  0  0  0  0  0  0  0  0  0  0
    4.6903   25.7129    5.8380 C   0  0  0  0  0  0  0  0  0  0  0  0
    4.6667   25.1395    7.1233 C   0  0  0  0  0  0  0  0  0  0  0  0
    3.9496   25.7658    8.1576 C   0  0  0  0  0  0  0  0  0  0  0  0
    3.2460   26.9556    7.8985 C   0  0  0  0  0  0  0  0  0  0  0  0
    0.6302   28.2313    7.4508 N   0  0  0  0  0  0  0  0  0  0  0  0
   -0.4898   28.6252    8.0923 C   0  0  0  0  0  0  0  0  0  0  0  0
   -1.1796   27.7315    8.8832 O   0  0  0  0  0  0  0  0  0  0  0  0
   -0.8660   29.9818    8.0000 C   0  0  0  0  0  0  0  0  0  0  0  0
   -1.9251   30.7129    8.5212 N   0  0  0  0  0  0  0  0  0  0  0  0
   -0.5542   32.0464    7.3306 N   0  0  0  0  0  0  0  0  0  0  0  0
   -0.0249   30.7863    7.2610 C   0  0  0  0  0  0  0  0  0  0  0  0
    1.1172   30.4049    6.6113 N   0  0  0  0  0  0  0  0  0  0  0  0
    2.5827   28.6807    6.3360 N   0  0  0  0  0  0  0  0  0  0  0  0
    3.2365   27.5251    6.6032 C   0  0  0  0  0  0  0  0  0  0  0  0
    3.9871   26.9068    5.5819 C   0  0  0  0  0  0  0  0  0  0  0  0
    5.4311   23.8790    7.4001 S   0  0  0  0  0  0  0  0  0  0  0  0
    5.8108   23.2938    6.1199 O   0  0  0  0  0  0  0  0  0  0  0  0
    6.4234   24.1721    8.4274 O   0  0  0  0  0  0  0  0  0  0  0  0
    4.4921   22.8906    8.0257 N   0  0  0  0  0  0  0  0  0  0  0  0
    3.8604   21.8742    7.2087 C   0  0  0  0  0  0  0  0  0  0  0  0
    4.2167   22.9522    9.4469 C   0  0  0  0  0  0  0  0  0  0  0  0
   -2.3473   32.7449    8.2886 H   0  0  0  0  0  0  0  0  0  0  0  0
    0.3548   26.3504    8.8841 H   0  0  0  0  0  0  0  0  0  0  0  0
   -1.0756   25.9287    7.8828 H   0  0  0  0  0  0  0  0  0  0  0  0
   -2.3913   25.7635   10.0760 H   0  0  0  0  0  0  0  0  0  0  0  0
   -1.7056   23.7998    8.7901 H   0  0  0  0  0  0  0  0  0  0  0  0
   -0.0549   23.8683    9.4951 H   0  0  0  0  0  0  0  0  0  0  0  0
   -2.6643   23.3154   10.9950 H   0  0  0  0  0  0  0  0  0  0  0  0
   -1.3742   22.1268   10.6083 H   0  0  0  0  0  0  0  0  0  0  0  0
   -1.2434   22.9254   12.9699 H   0  0  0  0  0  0  0  0  0  0  0  0
    0.2221   23.3603   12.0266 H   0  0  0  0  0  0  0  0  0  0  0  0
   -2.1477   25.1942   12.6804 H   0  0  0  0  0  0  0  0  0  0  0  0
   -0.4976   25.2825   13.3847 H   0  0  0  0  0  0  0  0  0  0  0  0
    0.4575   25.8452   11.2064 H   0  0  0  0  0  0  0  0  0  0  0  0
   -0.8891   26.9759   11.5737 H   0  0  0  0  0  0  0  0  0  0  0  0
    5.2489   25.2365    5.0459 H   0  0  0  0  0  0  0  0  0  0  0  0
    3.9391   25.3347    9.1478 H   0  0  0  0  0  0  0  0  0  0  0  0
    2.7061   27.4407    8.6982 H   0  0  0  0  0  0  0  0  0  0  0  0
    0.8943   27.2670    7.4687 H   0  0  0  0  0  0  0  0  0  0  0  0
   -0.1890   32.8832    6.9226 H   0  0  0  0  0  0  0  0  0  0  0  0
    4.0232   27.3508    4.5981 H   0  0  0  0  0  0  0  0  0  0  0  0
    3.2118   21.2476    7.8385 H   0  0  0  0  0  0  0  0  0  0  0  0
    3.2563   22.3563    6.4260 H   0  0  0  0  0  0  0  0  0  0  0  0
    4.6336   21.2471    6.7409 H   0  0  0  0  0  0  0  0  0  0  0  0
    3.5112   22.1534    9.7192 H   0  0  0  0  0  0  0  0  0  0  0  0
    5.1537   22.8206   10.0079 H   0  0  0  0  0  0  0  0  0  0  0  0
    3.7763   23.9297    9.6929 H   0  0  0  0  0  0  0  0  0  0  0  0
  1 14  1  0  0  0  0
  1 21  1  0  0  0  0
  1 22  2  0  0  0  0
  2 18  2  0  0  0  0
  2 19  1  0  0  0  0
  3  4  1  0  0  0  0
  3 16  1  0  0  0  0
  4  5  1  0  0  0  0
  4  9  1  0  0  0  0
  5  6  1  0  0  0  0
  6  7  1  0  0  0  0
  7  8  1  0  0  0  0
  8  9  1  0  0  0  0
 10 11  2  0  0  0  0
 10 24  1  0  0  0  0
 11 12  1  0  0  0  0
 11 25  1  0  0  0  0
 12 13  2  0  0  0  0
 13 23  1  0  0  0  0
 14 15  1  0  0  0  0
 15 16  1  0  0  0  0
 15 17  2  0  0  0  0
 17 18  1  0  0  0  0
 17 20  1  0  0  0  0
 19 20  1  0  0  0  0
 20 21  2  0  0  0  0
 22 23  1  0  0  0  0
 23 24  2  0  0  0  0
 25 26  2  0  0  0  0
 25 27  2  0  0  0  0
 25 28  1  0  0  0  0
 28 29  1  0  0  0  0
 28 30  1  0  0  0  0
  2 31  1  0  0  0  0
  3 32  1  0  0  0  0
  3 33  1  0  0  0  0
  4 34  1  0  0  0  0
  5 35  1  0  0  0  0
  5 36  1  0  0  0  0
  6 37  1  0  0  0  0
  6 38  1  0  0  0  0
  7 39  1  0  0  0  0
  7 40  1  0  0  0  0
  8 41  1  0  0  0  0
  8 42  1  0  0  0  0
  9 43  1  0  0  0  0
  9 44  1  0  0  0  0
 10 45  1  0  0  0  0
 12 46  1  0  0  0  0
 13 47  1  0  0  0  0
 14 48  1  0  0  0  0
 19 49  1  0  0  0  0
 24 50  1  0  0  0  0
 29 51  1  0  0  0  0
 29 52  1  0  0  0  0
 29 53  1  0  0  0  0
 30 54  1  0  0  0  0
 30 55  1  0  0  0  0
 30 56  1  0  0  0  0
M  END
> <r_user_dG.exp>
-9.882

$$$$
29
  -OEChem-05162309453D
 Structure written by MMmdl.
 56 59  0     0  0  0  0  0  0999 V2000
    1.3901   29.1077    6.7935 C   0  0  0  0  0  0  0  0  0  0  0  0
   -1.6911   31.9130    8.0794 C   0  0  0  0  0  0  0  0  0  0  0  0
   -0.7437   26.3748    8.8319 C   0  0  0  0  0  0  0  0  0  0  0  0
   -1.3142   25.5567    9.9914 C   0  0  0  0  0  0  0  0  0  0  0  0
   -1.1214   24.0589    9.6854 C   0  0  0  0  0  0  0  0  0  0  0  0
   -1.5824   23.1795   10.8502 C   0  0  0  0  0  0  0  0  0  0  0  0
   -0.8551   23.5463   12.1491 C   0  0  0  0  0  0  0  0  0  0  0  0
   -1.0780   25.0277   12.4857 C   0  0  0  0  0  0  0  0  0  0  0  0
   -0.6321   25.9351   11.3273 C   0  0  0  0  0  0  0  0  0  0  0  0
    4.6903   25.7129    5.8380 C   0  0  0  0  0  0  0  0  0  0  0  0
    4.6667   25.1395    7.1233 C   0  0  0  0  0  0  0  0  0  0  0  0
    3.9496   25.7658    8.1576 C   0  0  0  0  0  0  0  0  0  0  0  0
    3.2460   26.9556    7.8985 C   0  0  0  0  0  0  0  0  0  0  0  0
    0.6302   28.2313    7.4508 N   0  0  0  0  0  0  0  0  0  0  0  0
   -0.4898   28.6252    8.0923 C   0  0  0  0  0  0  0  0  0  0  0  0
   -1.1796   27.7315    8.8832 O   0  0  0  0  0  0  0  0  0  0  0  0
   -0.8660   29.9818    8.0000 C   0  0  0  0  0  0  0  0  0  0  0  0
   -1.9251   30.7129    8.5212 N   0  0  0  0  0  0  0  0  0  0  0  0
   -0.5542   32.0464    7.3306 N   0  0  0  0  0  0  0  0  0  0  0  0
   -0.0249   30.7863    7.2610 C   0  0  0  0  0  0  0  0  0  0  0  0
    1.1172   30.4049    6.6113 N   0  0  0  0  0  0  0  0  0  0  0  0
    2.5827   28.6807    6.3360 N   0  0  0  0  0  0  0  0  0  0  0  0
    3.2365   27.5251    6.6032 C   0  0  0  0  0  0  0  0  0  0  0  0
    3.9871   26.9068    5.5819 C   0  0  0  0  0  0  0  0  0  0  0  0
    5.4311   23.8790    7.4001 S   0  0  0  0  0  0  0  0  0  0  0  0
    5.8108   23.2938    6.1199 O   0  0  0  0  0  0  0  0  0  0  0  0
    6.4234   24.1721    8.4274 O   0  0  0  0  0  0  0  0  0  0  0  0
    4.4921   22.8906    8.0257 N   0  0  0  0  0  0  0  0  0  0  0  0
    3.8604   21.8742    7.2087 C   0  0  0  0  0  0  0  0  0  0  0  0
    4.2167   22.9522    9.4469 C   0  0  0  0  0  0  0  0  0  0  0  0
   -2.3473   32.7449    8.2886 H   0  0  0  0  0  0  0  0  0  0  0  0
    0.3548   26.3504    8.8841 H   0  0  0  0  0  0  0  0  0  0  0  0
   -1.0756   25.9287    7.8828 H   0  0  0  0  0  0  0  0  0  0  0  0
   -2.3913   25.7635   10.0760 H   0  0  0  0  0  0  0  0  0  0  0  0
   -1.7056   23.7998    8.7901 H   0  0  0  0  0  0  0  0  0  0  0  0
   -0.0549   23.8683    9.4951 H   0  0  0  0  0  0  0  0  0  0  0  0
   -2.6643   23.3154   10.9950 H   0  0  0  0  0  0  0  0  0  0  0  0
   -1.3742   22.1268   10.6083 H   0  0  0  0  0  0  0  0  0  0  0  0
   -1.2434   22.9254   12.9699 H   0  0  0  0  0  0  0  0  0  0  0  0
    0.2221   23.3603   12.0266 H   0  0  0  0  0  0  0  0  0  0  0  0
   -2.1477   25.1942   12.6804 H   0  0  0  0  0  0  0  0  0  0  0  0
   -0.4976   25.2825   13.3847 H   0  0  0  0  0  0  0  0  0  0  0  0
    0.4575   25.8452   11.2064 H   0  0  0  0  0  0  0  0  0  0  0  0
   -0.8891   26.9759   11.5737 H   0  0  0  0  0  0  0  0  0  0  0  0
    5.2489   25.2365    5.0459 H   0  0  0  0  0  0  0  0  0  0  0  0
    3.9391   25.3347    9.1478 H   0  0  0  0  0  0  0  0  0  0  0  0
    2.7061   27.4407    8.6982 H   0  0  0  0  0  0  0  0  0  0  0  0
    1.6818   31.0231    6.0644 H   0  0  0  0  0  0  0  0  0  0  0  0
    3.0515   29.3048    5.7110 H   0  0  0  0  0  0  0  0  0  0  0  0
    4.0232   27.3508    4.5981 H   0  0  0  0  0  0  0  0  0  0  0  0
    3.2118   21.2476    7.8385 H   0  0  0  0  0  0  0  0  0  0  0  0
    3.2563   22.3563    6.4260 H   0  0  0  0  0  0  0  0  0  0  0  0
    4.6336   21.2471    6.7409 H   0  0  0  0  0  0  0  0  0  0  0  0
    3.5112   22.1534    9.7192 H   0  0  0  0  0  0  0  0  0  0  0  0
    5.1537   22.8206   10.0079 H   0  0  0  0  0  0  0  0  0  0  0  0
    3.7763   23.9297    9.6929 H   0  0  0  0  0  0  0  0  0  0  0  0
  1 14  2  0  0  0  0
  1 21  1  0  0  0  0
  1 22  1  0  0  0  0
  2 18  2  0  0  0  0
  2 19  1  0  0  0  0
  3  4  1  0  0  0  0
  3 16  1  0  0  0  0
  4  5  1  0  0  0  0
  4  9  1  0  0  0  0
  5  6  1  0  0  0  0
  6  7  1  0  0  0  0
  7  8  1  0  0  0  0
  8  9  1  0  0  0  0
 10 11  2  0  0  0  0
 10 24  1  0  0  0  0
 11 12  1  0  0  0  0
 11 25  1  0  0  0  0
 12 13  2  0  0  0  0
 13 23  1  0  0  0  0
 14 15  1  0  0  0  0
 15 16  1  0  0  0  0
 15 17  2  0  0  0  0
 17 18  1  0  0  0  0
 17 20  1  0  0  0  0
 19 20  2  0  0  0  0
 20 21  1  0  0  0  0
 22 23  1  0  0  0  0
 23 24  2  0  0  0  0
 25 26  2  0  0  0  0
 25 27  2  0  0  0  0
 25 28  1  0  0  0  0
 28 29  1  0  0  0  0
 28 30  1  0  0  0  0
  2 31  1  0  0  0  0
  3 32  1  0  0  0  0
  3 33  1  0  0  0  0
  4 34  1  0  0  0  0
  5 35  1  0  0  0  0
  5 36  1  0  0  0  0
  6 37  1  0  0  0  0
  6 38  1  0  0  0  0
  7 39  1  0  0  0  0
  7 40  1  0  0  0  0
  8 41  1  0  0  0  0
  8 42  1  0  0  0  0
  9 43  1  0  0  0  0
  9 44  1  0  0  0  0
 10 45  1  0  0  0  0
 12 46  1  0  0  0  0
 13 47  1  0  0  0  0
 21 48  1  0  0  0  0
 22 49  1  0  0  0  0
 24 50  1  0  0  0  0
 29 51  1  0  0  0  0
 29 52  1  0  0  0  0
 29 53  1  0  0  0  0
 30 54  1  0  0  0  0
 30 55  1  0  0  0  0
 30 56  1  0  0  0  0
M  END
> <r_user_dG.exp>
-9.882

$$$$
29
  -OEChem-05162309453D
 Structure written by MMmdl.
 56 59  0     0  0  0  0  0  0999 V2000
    1.3901   29.1077    6.7935 C   0  0  0  0  0  0  0  0  0  0  0  0
   -1.6911   31.9130    8.0794 C   0  0  0  0  0  0  0  0  0  0  0  0
   -0.7437   26.3748    8.8319 C   0  0  0  0  0  0  0  0  0  0  0  0
   -1.3142   25.5567    9.9914 C   0  0  0  0  0  0  0  0  0  0  0  0
   -1.1214   24.0589    9.6854 C   0  0  0  0  0  0  0  0  0  0  0  0
   -1.5824   23.1795   10.8502 C   0  0  0  0  0  0  0  0  0  0  0  0
   -0.8551   23.5463   12.1491 C   0  0  0  0  0  0  0  0  0  0  0  0
   -1.0780   25.0277   12.4857 C   0  0  0  0  0  0  0  0  0  0  0  0
   -0.6321   25.9351   11.3273 C   0  0  0  0  0  0  0  0  0  0  0  0
    4.6903   25.7129    5.8380 C   0  0  0  0  0  0  0  0  0  0  0  0
    4.6667   25.1395    7.1233 C   0  0  0  0  0  0  0  0  0  0  0  0
    3.9496   25.7658    8.1576 C   0  0  0  0  0  0  0  0  0  0  0  0
    3.2460   26.9556    7.8985 C   0  0  0  0  0  0  0  0  0  0  0  0
    0.6302   28.2313    7.4508 N   0  0  0  0  0  0  0  0  0  0  0  0
   -0.4898   28.6252    8.0923 C   0  0  0  0  0  0  0  0  0  0  0  0
   -1.1796   27.7315    8.8832 O   0  0  0  0  0  0  0  0  0  0  0  0
   -0.8660   29.9818    8.0000 C   0  0  0  0  0  0  0  0  0  0  0  0
   -1.9251   30.7129    8.5212 N   0  0  0  0  0  0  0  0  0  0  0  0
   -0.5542   32.0464    7.3306 N   0  0  0  0  0  0  0  0  0  0  0  0
   -0.0249   30.7863    7.2610 C   0  0  0  0  0  0  0  0  0  0  0  0
    1.1172   30.4049    6.6113 N   0  0  0  0  0  0  0  0  0  0  0  0
    2.5827   28.6807    6.3360 N   0  0  0  0  0  0  0  0  0  0  0  0
    3.2365   27.5251    6.6032 C   0  0  0  0  0  0  0  0  0  0  0  0
    3.9871   26.9068    5.5819 C   0  0  0  0  0  0  0  0  0  0  0  0
    5.4311   23.8790    7.4001 S   0  0  0  0  0  0  0  0  0  0  0  0
    5.8108   23.2938    6.1199 O   0  0  0  0  0  0  0  0  0  0  0  0
    6.4234   24.1721    8.4274 O   0  0  0  0  0  0  0  0  0  0  0  0
    4.4921   22.8906    8.0257 N   0  0  0  0  0  0  0  0  0  0  0  0
    3.8604   21.8742    7.2087 C   0  0  0  0  0  0  0  0  0  0  0  0
    4.2167   22.9522    9.4469 C   0  0  0  0  0  0  0  0  0  0  0  0
   -2.3473   32.7449    8.2886 H   0  0  0  0  0  0  0  0  0  0  0  0
    0.3548   26.3504    8.8841 H   0  0  0  0  0  0  0  0  0  0  0  0
   -1.0756   25.9287    7.8828 H   0  0  0  0  0  0  0  0  0  0  0  0
   -2.3913   25.7635   10.0760 H   0  0  0  0  0  0  0  0  0  0  0  0
   -1.7056   23.7998    8.7901 H   0  0  0  0  0  0  0  0  0  0  0  0
   -0.0549   23.8683    9.4951 H   0  0  0  0  0  0  0  0  0  0  0  0
   -2.6643   23.3154   10.9950 H   0  0  0  0  0  0  0  0  0  0  0  0
   -1.3742   22.1268   10.6083 H   0  0  0  0  0  0  0  0  0  0  0  0
   -1.2434   22.9254   12.9699 H   0  0  0  0  0  0  0  0  0  0  0  0
    0.2221   23.3603   12.0266 H   0  0  0  0  0  0  0  0  0  0  0  0
   -2.1477   25.1942   12.6804 H   0  0  0  0  0  0  0  0  0  0  0  0
   -0.4976   25.2825   13.3847 H   0  0  0  0  0  0  0  0  0  0  0  0
    0.4575   25.8452   11.2064 H   0  0  0  0  0  0  0  0  0  0  0  0
   -0.8891   26.9759   11.5737 H   0  0  0  0  0  0  0  0  0  0  0  0
    5.2489   25.2365    5.0459 H   0  0  0  0  0  0  0  0  0  0  0  0
    3.9391   25.3347    9.1478 H   0  0  0  0  0  0  0  0  0  0  0  0
    2.7061   27.4407    8.6982 H   0  0  0  0  0  0  0  0  0  0  0  0
    0.8943   27.2670    7.4687 H   0  0  0  0  0  0  0  0  0  0  0  0
    3.0515   29.3048    5.7110 H   0  0  0  0  0  0  0  0  0  0  0  0
    4.0232   27.3508    4.5981 H   0  0  0  0  0  0  0  0  0  0  0  0
    3.2118   21.2476    7.8385 H   0  0  0  0  0  0  0  0  0  0  0  0
    3.2563   22.3563    6.4260 H   0  0  0  0  0  0  0  0  0  0  0  0
    4.6336   21.2471    6.7409 H   0  0  0  0  0  0  0  0  0  0  0  0
    3.5112   22.1534    9.7192 H   0  0  0  0  0  0  0  0  0  0  0  0
    5.1537   22.8206   10.0079 H   0  0  0  0  0  0  0  0  0  0  0  0
    3.7763   23.9297    9.6929 H   0  0  0  0  0  0  0  0  0  0  0  0
  1 14  1  0  0  0  0
  1 21  2  0  0  0  0
  1 22  1  0  0  0  0
  2 18  2  0  0  0  0
  2 19  1  0  0  0  0
  3  4  1  0  0  0  0
  3 16  1  0  0  0  0
  4  5  1  0  0  0  0
  4  9  1  0  0  0  0
  5  6  1  0  0  0  0
  6  7  1  0  0  0  0
  7  8  1  0  0  0  0
  8  9  1  0  0  0  0
 10 11  2  0  0  0  0
 10 24  1  0  0  0  0
 11 12  1  0  0  0  0
 11 25  1  0  0  0  0
 12 13  2  0  0  0  0
 13 23  1  0  0  0  0
 14 15  1  0  0  0  0
 15 16  1  0  0  0  0
 15 17  2  0  0  0  0
 17 18  1  0  0  0  0
 17 20  1  0  0  0  0
 19 20  2  0  0  0  0
 20 21  1  0  0  0  0
 22 23  1  0  0  0  0
 23 24  2  0  0  0  0
 25 26  2  0  0  0  0
 25 27  2  0  0  0  0
 25 28  1  0  0  0  0
 28 29  1  0  0  0  0
 28 30  1  0  0  0  0
  2 31  1  0  0  0  0
  3 32  1  0  0  0  0
  3 33  1  0  0  0  0
  4 34  1  0  0  0  0
  5 35  1  0  0  0  0
  5 36  1  0  0  0  0
  6 37  1  0  0  0  0
  6 38  1  0  0  0  0
  7 39  1  0  0  0  0
  7 40  1  0  0  0  0
  8 41  1  0  0  0  0
  8 42  1  0  0  0  0
  9 43  1  0  0  0  0
  9 44  1  0  0  0  0
 10 45  1  0  0  0  0
 12 46  1  0  0  0  0
 13 47  1  0  0  0  0
 14 48  1  0  0  0  0
 22 49  1  0  0  0  0
 24 50  1  0  0  0  0
 29 51  1  0  0  0  0
 29 52  1  0  0  0  0
 29 53  1  0  0  0  0
 30 54  1  0  0  0  0
 30 55  1  0  0  0  0
 30 56  1  0  0  0  0
M  END
> <r_user_dG.exp>
-9.882

$$$$
29
  -OEChem-05162309453D
 Structure written by MMmdl.
 56 59  0     0  0  0  0  0  0999 V2000
    1.3901   29.1077    6.7935 C   0  0  0  0  0  0  0  0  0  0  0  0
   -1.6911   31.9130    8.0794 C   0  0  0  0  0  0  0  0  0  0  0  0
   -0.7437   26.3748    8.8319 C   0  0  0  0  0  0  0  0  0  0  0  0
   -1.3142   25.5567    9.9914 C   0  0  0  0  0  0  0  0  0  0  0  0
   -1.1214   24.0589    9.6854 C   0  0  0  0  0  0  0  0  0  0  0  0
   -1.5824   23.1795   10.8502 C   0  0  0  0  0  0  0  0  0  0  0  0
   -0.8551   23.5463   12.1491 C   0  0  0  0  0  0  0  0  0  0  0  0
   -1.0780   25.0277   12.4857 C   0  0  0  0  0  0  0  0  0  0  0  0
   -0.6321   25.9351   11.3273 C   0  0  0  0  0  0  0  0  0  0  0  0
    4.6903   25.7129    5.8380 C   0  0  0  0  0  0  0  0  0  0  0  0
    4.6667   25.1395    7.1233 C   0  0  0  0  0  0  0  0  0  0  0  0
    3.9496   25.7658    8.1576 C   0  0  0  0  0  0  0  0  0  0  0  0
    3.2460   26.9556    7.8985 C   0  0  0  0  0  0  0  0  0  0  0  0
    0.6302   28.2313    7.4508 N   0  0  0  0  0  0  0  0  0  0  0  0
   -0.4898   28.6252    8.0923 C   0  0  0  0  0  0  0  0  0  0  0  0
   -1.1796   27.7315    8.8832 O   0  0  0  0  0  0  0  0  0  0  0  0
   -0.8660   29.9818    8.0000 C   0  0  0  0  0  0  0  0  0  0  0  0
   -1.9251   30.7129    8.5212 N   0  0  0  0  0  0  0  0  0  0  0  0
   -0.5542   32.0464    7.3306 N   0  0  0  0  0  0  0  0  0  0  0  0
   -0.0249   30.7863    7.2610 C   0  0  0  0  0  0  0  0  0  0  0  0
    1.1172   30.4049    6.6113 N   0  0  0  0  0  0  0  0  0  0  0  0
    2.5827   28.6807    6.3360 N   0  0  0  0  0  0  0  0  0  0  0  0
    3.2365   27.5251    6.6032 C   0  0  0  0  0  0  0  0  0  0  0  0
    3.9871   26.9068    5.5819 C   0  0  0  0  0  0  0  0  0  0  0  0
    5.4311   23.8790    7.4001 S   0  0  0  0  0  0  0  0  0  0  0  0
    5.8108   23.2938    6.1199 O   0  0  0  0  0  0  0  0  0  0  0  0
    6.4234   24.1721    8.4274 O   0  0  0  0  0  0  0  0  0  0  0  0
    4.4921   22.8906    8.0257 N   0  0  0  0  0  0  0  0  0  0  0  0
    3.8604   21.8742    7.2087 C   0  0  0  0  0  0  0  0  0  0  0  0
    4.2167   22.9522    9.4469 C   0  0  0  0  0  0  0  0  0  0  0  0
   -2.3473   32.7449    8.2886 H   0  0  0  0  0  0  0  0  0  0  0  0
    0.3548   26.3504    8.8841 H   0  0  0  0  0  0  0  0  0  0  0  0
   -1.0756   25.9287    7.8828 H   0  0  0  0  0  0  0  0  0  0  0  0
   -2.3913   25.7635   10.0760 H   0  0  0  0  0  0  0  0  0  0  0  0
   -1.7056   23.7998    8.7901 H   0  0  0  0  0  0  0  0  0  0  0  0
   -0.0549   23.8683    9.4951 H   0  0  0  0  0  0  0  0  0  0  0  0
   -2.6643   23.3154   10.9950 H   0  0  0  0  0  0  0  0  0  0  0  0
   -1.3742   22.1268   10.6083 H   0  0  0  0  0  0  0  0  0  0  0  0
   -1.2434   22.9254   12.9699 H   0  0  0  0  0  0  0  0  0  0  0  0
    0.2221   23.3603   12.0266 H   0  0  0  0  0  0  0  0  0  0  0  0
   -2.1477   25.1942   12.6804 H   0  0  0  0  0  0  0  0  0  0  0  0
   -0.4976   25.2825   13.3847 H   0  0  0  0  0  0  0  0  0  0  0  0
    0.4575   25.8452   11.2064 H   0  0  0  0  0  0  0  0  0  0  0  0
   -0.8891   26.9759   11.5737 H   0  0  0  0  0  0  0  0  0  0  0  0
    5.2489   25.2365    5.0459 H   0  0  0  0  0  0  0  0  0  0  0  0
    3.9391   25.3347    9.1478 H   0  0  0  0  0  0  0  0  0  0  0  0
    2.7061   27.4407    8.6982 H   0  0  0  0  0  0  0  0  0  0  0  0
    0.8943   27.2670    7.4687 H   0  0  0  0  0  0  0  0  0  0  0  0
    1.6818   31.0231    6.0644 H   0  0  0  0  0  0  0  0  0  0  0  0
    4.0232   27.3508    4.5981 H   0  0  0  0  0  0  0  0  0  0  0  0
    3.2118   21.2476    7.8385 H   0  0  0  0  0  0  0  0  0  0  0  0
    3.2563   22.3563    6.4260 H   0  0  0  0  0  0  0  0  0  0  0  0
    4.6336   21.2471    6.7409 H   0  0  0  0  0  0  0  0  0  0  0  0
    3.5112   22.1534    9.7192 H   0  0  0  0  0  0  0  0  0  0  0  0
    5.1537   22.8206   10.0079 H   0  0  0  0  0  0  0  0  0  0  0  0
    3.7763   23.9297    9.6929 H   0  0  0  0  0  0  0  0  0  0  0  0
  1 14  1  0  0  0  0
  1 21  1  0  0  0  0
  1 22  2  0  0  0  0
  2 18  2  0  0  0  0
  2 19  1  0  0  0  0
  3  4  1  0  0  0  0
  3 16  1  0  0  0  0
  4  5  1  0  0  0  0
  4  9  1  0  0  0  0
  5  6  1  0  0  0  0
  6  7  1  0  0  0  0
  7  8  1  0  0  0  0
  8  9  1  0  0  0  0
 10 11  2  0  0  0  0
 10 24  1  0  0  0  0
 11 12  1  0  0  0  0
 11 25  1  0  0  0  0
 12 13  2  0  0  0  0
 13 23  1  0  0  0  0
 14 15  1  0  0  0  0
 15 16  1  0  0  0  0
 15 17  2  0  0  0  0
 17 18  1  0  0  0  0
 17 20  1  0  0  0  0
 19 20  2  0  0  0  0
 20 21  1  0  0  0  0
 22 23  1  0  0  0  0
 23 24  2  0  0  0  0
 25 26  2  0  0  0  0
 25 27  2  0  0  0  0
 25 28  1  0  0  0  0
 28 29  1  0  0  0  0
 28 30  1  0  0  0  0
  2 31  1  0  0  0  0
  3 32  1  0  0  0  0
  3 33  1  0  0  0  0
  4 34  1  0  0  0  0
  5 35  1  0  0  0  0
  5 36  1  0  0  0  0
  6 37  1  0  0  0  0
  6 38  1  0  0  0  0
  7 39  1  0  0  0  0
  7 40  1  0  0  0  0
  8 41  1  0  0  0  0
  8 42  1  0  0  0  0
  9 43  1  0  0  0  0
  9 44  1  0  0  0  0
 10 45  1  0  0  0  0
 12 46  1  0  0  0  0
 13 47  1  0  0  0  0
 14 48  1  0  0  0  0
 21 49  1  0  0  0  0
 24 50  1  0  0  0  0
 29 51  1  0  0  0  0
 29 52  1  0  0  0  0
 29 53  1  0  0  0  0
 30 54  1  0  0  0  0
 30 55  1  0  0  0  0
 30 56  1  0  0  0  0
M  END
> <r_user_dG.exp>
-9.882

$$$$
29
  -OEChem-05162309453D
 Structure written by MMmdl.
 56 59  0     0  0  0  0  0  0999 V2000
    1.3901   29.1077    6.7935 C   0  0  0  0  0  0  0  0  0  0  0  0
   -1.6911   31.9130    8.0794 C   0  0  0  0  0  0  0  0  0  0  0  0
   -0.7437   26.3748    8.8319 C   0  0  0  0  0  0  0  0  0  0  0  0
   -1.3142   25.5567    9.9914 C   0  0  0  0  0  0  0  0  0  0  0  0
   -1.1214   24.0589    9.6854 C   0  0  0  0  0  0  0  0  0  0  0  0
   -1.5824   23.1795   10.8502 C   0  0  0  0  0  0  0  0  0  0  0  0
   -0.8551   23.5463   12.1491 C   0  0  0  0  0  0  0  0  0  0  0  0
   -1.0780   25.0277   12.4857 C   0  0  0  0  0  0  0  0  0  0  0  0
   -0.6321   25.9351   11.3273 C   0  0  0  0  0  0  0  0  0  0  0  0
    4.6903   25.7129    5.8380 C   0  0  0  0  0  0  0  0  0  0  0  0
    4.6667   25.1395    7.1233 C   0  0  0  0  0  0  0  0  0  0  0  0
    3.9496   25.7658    8.1576 C   0  0  0  0  0  0  0  0  0  0  0  0
    3.2460   26.9556    7.8985 C   0  0  0  0  0  0  0  0  0  0  0  0
    0.6302   28.2313    7.4508 N   0  0  0  0  0  0  0  0  0  0  0  0
   -0.4898   28.6252    8.0923 C   0  0  0  0  0  0  0  0  0  0  0  0
   -1.1796   27.7315    8.8832 O   0  0  0  0  0  0  0  0  0  0  0  0
   -0.8660   29.9818    8.0000 C   0  0  0  0  0  0  0  0  0  0  0  0
   -1.9251   30.7129    8.5212 N   0  0  0  0  0  0  0  0  0  0  0  0
   -0.5542   32.0464    7.3306 N   0  0  0  0  0  0  0  0  0  0  0  0
   -0.0249   30.7863    7.2610 C   0  0  0  0  0  0  0  0  0  0  0  0
    1.1172   30.4049    6.6113 N   0  0  0  0  0  0  0  0  0  0  0  0
    2.5827   28.6807    6.3360 N   0  0  0  0  0  0  0  0  0  0  0  0
    3.2365   27.5251    6.6032 C   0  0  0  0  0  0  0  0  0  0  0  0
    3.9871   26.9068    5.5819 C   0  0  0  0  0  0  0  0  0  0  0  0
    5.4311   23.8790    7.4001 S   0  0  0  0  0  0  0  0  0  0  0  0
    5.8108   23.2938    6.1199 O   0  0  0  0  0  0  0  0  0  0  0  0
    6.4234   24.1721    8.4274 O   0  0  0  0  0  0  0  0  0  0  0  0
    4.4921   22.8906    8.0257 N   0  0  0  0  0  0  0  0  0  0  0  0
    3.8604   21.8742    7.2087 C   0  0  0  0  0  0  0  0  0  0  0  0
    4.2167   22.9522    9.4469 C   0  0  0  0  0  0  0  0  0  0  0  0
   -2.5456   32.2197    7.4583 H   0  0  0  0  0  0  0  0  0  0  0  0
   -1.6083   32.5848    8.9465 H   0  0  0  0  0  0  0  0  0  0  0  0
    0.3548   26.3504    8.8841 H   0  0  0  0  0  0  0  0  0  0  0  0
   -1.0756   25.9287    7.8828 H   0  0  0  0  0  0  0  0  0  0  0  0
   -2.3913   25.7635   10.0760 H   0  0  0  0  0  0  0  0  0  0  0  0
   -1.7056   23.7998    8.7901 H   0  0  0  0  0  0  0  0  0  0  0  0
   -0.0549   23.8683    9.4951 H   0  0  0  0  0  0  0  0  0  0  0  0
   -2.6643   23.3154   10.9950 H   0  0  0  0  0  0  0  0  0  0  0  0
   -1.3742   22.1268   10.6083 H   0  0  0  0  0  0  0  0  0  0  0  0
   -1.2434   22.9254   12.9699 H   0  0  0  0  0  0  0  0  0  0  0  0
    0.2221   23.3603   12.0266 H   0  0  0  0  0  0  0  0  0  0  0  0
   -2.1477   25.1942   12.6804 H   0  0  0  0  0  0  0  0  0  0  0  0
   -0.4976   25.2825   13.3847 H   0  0  0  0  0  0  0  0  0  0  0  0
    0.4575   25.8452   11.2064 H   0  0  0  0  0  0  0  0  0  0  0  0
   -0.8891   26.9759   11.5737 H   0  0  0  0  0  0  0  0  0  0  0  0
    5.2489   25.2365    5.0459 H   0  0  0  0  0  0  0  0  0  0  0  0
    3.9391   25.3347    9.1478 H   0  0  0  0  0  0  0  0  0  0  0  0
    2.7061   27.4407    8.6982 H   0  0  0  0  0  0  0  0  0  0  0  0
    3.0515   29.3048    5.7110 H   0  0  0  0  0  0  0  0  0  0  0  0
    4.0232   27.3508    4.5981 H   0  0  0  0  0  0  0  0  0  0  0  0
    3.2118   21.2476    7.8385 H   0  0  0  0  0  0  0  0  0  0  0  0
    3.2563   22.3563    6.4260 H   0  0  0  0  0  0  0  0  0  0  0  0
    4.6336   21.2471    6.7409 H   0  0  0  0  0  0  0  0  0  0  0  0
    3.5112   22.1534    9.7192 H   0  0  0  0  0  0  0  0  0  0  0  0
    5.1537   22.8206   10.0079 H   0  0  0  0  0  0  0  0  0  0  0  0
    3.7763   23.9297    9.6929 H   0  0  0  0  0  0  0  0  0  0  0  0
  1 14  1  0  0  0  0
  1 21  2  0  0  0  0
  1 22  1  0  0  0  0
  2 18  1  0  0  0  0
  2 19  1  0  0  0  0
  3  4  1  0  0  0  0
  3 16  1  0  0  0  0
  4  5  1  0  0  0  0
  4  9  1  0  0  0  0
  5  6  1  0  0  0  0
  6  7  1  0  0  0  0
  7  8  1  0  0  0  0
  8  9  1  0  0  0  0
 10 11  2  0  0  0  0
 10 24  1  0  0  0  0
 11 12  1  0  0  0  0
 11 25  1  0  0  0  0
 12 13  2  0  0  0  0
 13 23  1  0  0  0  0
 14 15  2  0  0  0  0
 15 16  1  0  0  0  0
 15 17  1  0  0  0  0
 17 18  2  0  0  0  0
 17 20  1  0  0  0  0
 19 20  2  0  0  0  0
 20 21  1  0  0  0  0
 22 23  1  0  0  0  0
 23 24  2  0  0  0  0
 25 26  2  0  0  0  0
 25 27  2  0  0  0  0
 25 28  1  0  0  0  0
 28 29  1  0  0  0  0
 28 30  1  0  0  0  0
  2 31  1  0  0  0  0
  2 32  1  0  0  0  0
  3 33  1  0  0  0  0
  3 34  1  0  0  0  0
  4 35  1  0  0  0  0
  5 36  1  0  0  0  0
  5 37  1  0  0  0  0
  6 38  1  0  0  0  0
  6 39  1  0  0  0  0
  7 40  1  0  0  0  0
  7 41  1  0  0  0  0
  8 42  1  0  0  0  0
  8 43  1  0  0  0  0
  9 44  1  0  0  0  0
  9 45  1  0  0  0  0
 10 46  1  0  0  0  0
 12 47  1  0  0  0  0
 13 48  1  0  0  0  0
 22 49  1  0  0  0  0
 24 50  1  0  0  0  0
 29 51  1  0  0  0  0
 29 52  1  0  0  0  0
 29 53  1  0  0  0  0
 30 54  1  0  0  0  0
 30 55  1  0  0  0  0
 30 56  1  0  0  0  0
M  END
> <r_user_dG.exp>
-9.882

$$$$
29
  -OEChem-05162309453D
 Structure written by MMmdl.
 56 59  0     0  0  0  0  0  0999 V2000
    1.3901   29.1077    6.7935 C   0  0  0  0  0  0  0  0  0  0  0  0
   -1.6911   31.9130    8.0794 C   0  0  0  0  0  0  0  0  0  0  0  0
   -0.7437   26.3748    8.8319 C   0  0  0  0  0  0  0  0  0  0  0  0
   -1.3142   25.5567    9.9914 C   0  0  0  0  0  0  0  0  0  0  0  0
   -1.1214   24.0589    9.6854 C   0  0  0  0  0  0  0  0  0  0  0  0
   -1.5824   23.1795   10.8502 C   0  0  0  0  0  0  0  0  0  0  0  0
   -0.8551   23.5463   12.1491 C   0  0  0  0  0  0  0  0  0  0  0  0
   -1.0780   25.0277   12.4857 C   0  0  0  0  0  0  0  0  0  0  0  0
   -0.6321   25.9351   11.3273 C   0  0  0  0  0  0  0  0  0  0  0  0
    4.6903   25.7129    5.8380 C   0  0  0  0  0  0  0  0  0  0  0  0
    4.6667   25.1395    7.1233 C   0  0  0  0  0  0  0  0  0  0  0  0
    3.9496   25.7658    8.1576 C   0  0  0  0  0  0  0  0  0  0  0  0
    3.2460   26.9556    7.8985 C   0  0  0  0  0  0  0  0  0  0  0  0
    0.6302   28.2313    7.4508 N   0  0  0  0  0  0  0  0  0  0  0  0
   -0.4898   28.6252    8.0923 C   0  0  0  0  0  0  0  0  0  0  0  0
   -1.1796   27.7315    8.8832 O   0  0  0  0  0  0  0  0  0  0  0  0
   -0.8660   29.9818    8.0000 C   0  0  0  0  0  0  0  0  0  0  0  0
   -1.9251   30.7129    8.5212 N   0  0  0  0  0  0  0  0  0  0  0  0
   -0.5542   32.0464    7.3306 N   0  0  0  0  0  0  0  0  0  0  0  0
   -0.0249   30.7863    7.2610 C   0  0  0  0  0  0  0  0  0  0  0  0
    1.1172   30.4049    6.6113 N   0  0  0  0  0  0  0  0  0  0  0  0
    2.5827   28.6807    6.3360 N   0  0  0  0  0  0  0  0  0  0  0  0
    3.2365   27.5251    6.6032 C   0  0  0  0  0  0  0  0  0  0  0  0
    3.9871   26.9068    5.5819 C   0  0  0  0  0  0  0  0  0  0  0  0
    5.4311   23.8790    7.4001 S   0  0  0  0  0  0  0  0  0  0  0  0
    5.8108   23.2938    6.1199 O   0  0  0  0  0  0  0  0  0  0  0  0
    6.4234   24.1721    8.4274 O   0  0  0  0  0  0  0  0  0  0  0  0
    4.4921   22.8906    8.0257 N   0  0  0  0  0  0  0  0  0  0  0  0
    3.8604   21.8742    7.2087 C   0  0  0  0  0  0  0  0  0  0  0  0
    4.2167   22.9522    9.4469 C   0  0  0  0  0  0  0  0  0  0  0  0
   -2.5456   32.2197    7.4583 H   0  0  0  0  0  0  0  0  0  0  0  0
   -1.6083   32.5848    8.9465 H   0  0  0  0  0  0  0  0  0  0  0  0
    0.3548   26.3504    8.8841 H   0  0  0  0  0  0  0  0  0  0  0  0
   -1.0756   25.9287    7.8828 H   0  0  0  0  0  0  0  0  0  0  0  0
   -2.3913   25.7635   10.0760 H   0  0  0  0  0  0  0  0  0  0  0  0
   -1.7056   23.7998    8.7901 H   0  0  0  0  0  0  0  0  0  0  0  0
   -0.0549   23.8683    9.4951 H   0  0  0  0  0  0  0  0  0  0  0  0
   -2.6643   23.3154   10.9950 H   0  0  0  0  0  0  0  0  0  0  0  0
   -1.3742   22.1268   10.6083 H   0  0  0  0  0  0  0  0  0  0  0  0
   -1.2434   22.9254   12.9699 H   0  0  0  0  0  0  0  0  0  0  0  0
    0.2221   23.3603   12.0266 H   0  0  0  0  0  0  0  0  0  0  0  0
   -2.1477   25.1942   12.6804 H   0  0  0  0  0  0  0  0  0  0  0  0
   -0.4976   25.2825   13.3847 H   0  0  0  0  0  0  0  0  0  0  0  0
    0.4575   25.8452   11.2064 H   0  0  0  0  0  0  0  0  0  0  0  0
   -0.8891   26.9759   11.5737 H   0  0  0  0  0  0  0  0  0  0  0  0
    5.2489   25.2365    5.0459 H   0  0  0  0  0  0  0  0  0  0  0  0
    3.9391   25.3347    9.1478 H   0  0  0  0  0  0  0  0  0  0  0  0
    2.7061   27.4407    8.6982 H   0  0  0  0  0  0  0  0  0  0  0  0
    1.6818   31.0231    6.0644 H   0  0  0  0  0  0  0  0  0  0  0  0
    4.0232   27.3508    4.5981 H   0  0  0  0  0  0  0  0  0  0  0  0
    3.2118   21.2476    7.8385 H   0  0  0  0  0  0  0  0  0  0  0  0
    3.2563   22.3563    6.4260 H   0  0  0  0  0  0  0  0  0  0  0  0
    4.6336   21.2471    6.7409 H   0  0  0  0  0  0  0  0  0  0  0  0
    3.5112   22.1534    9.7192 H   0  0  0  0  0  0  0  0  0  0  0  0
    5.1537   22.8206   10.0079 H   0  0  0  0  0  0  0  0  0  0  0  0
    3.7763   23.9297    9.6929 H   0  0  0  0  0  0  0  0  0  0  0  0
  1 14  1  0  0  0  0
  1 21  1  0  0  0  0
  1 22  2  0  0  0  0
  2 18  1  0  0  0  0
  2 19  1  0  0  0  0
  3  4  1  0  0  0  0
  3 16  1  0  0  0  0
  4  5  1  0  0  0  0
  4  9  1  0  0  0  0
  5  6  1  0  0  0  0
  6  7  1  0  0  0  0
  7  8  1  0  0  0  0
  8  9  1  0  0  0  0
 10 11  2  0  0  0  0
 10 24  1  0  0  0  0
 11 12  1  0  0  0  0
 11 25  1  0  0  0  0
 12 13  2  0  0  0  0
 13 23  1  0  0  0  0
 14 15  2  0  0  0  0
 15 16  1  0  0  0  0
 15 17  1  0  0  0  0
 17 18  2  0  0  0  0
 17 20  1  0  0  0  0
 19 20  2  0  0  0  0
 20 21  1  0  0  0  0
 22 23  1  0  0  0  0
 23 24  2  0  0  0  0
 25 26  2  0  0  0  0
 25 27  2  0  0  0  0
 25 28  1  0  0  0  0
 28 29  1  0  0  0  0
 28 30  1  0  0  0  0
  2 31  1  0  0  0  0
  2 32  1  0  0  0  0
  3 33  1  0  0  0  0
  3 34  1  0  0  0  0
  4 35  1  0  0  0  0
  5 36  1  0  0  0  0
  5 37  1  0  0  0  0
  6 38  1  0  0  0  0
  6 39  1  0  0  0  0
  7 40  1  0  0  0  0
  7 41  1  0  0  0  0
  8 42  1  0  0  0  0
  8 43  1  0  0  0  0
  9 44  1  0  0  0  0
  9 45  1  0  0  0  0
 10 46  1  0  0  0  0
 12 47  1  0  0  0  0
 13 48  1  0  0  0  0
 21 49  1  0  0  0  0
 24 50  1  0  0  0  0
 29 51  1  0  0  0  0
 29 52  1  0  0  0  0
 29 53  1  0  0  0  0
 30 54  1  0  0  0  0
 30 55  1  0  0  0  0
 30 56  1  0  0  0  0
M  END
> <r_user_dG.exp>
-9.882

$$$$
29
  -OEChem-05162309453D
 Structure written by MMmdl.
 56 59  0     0  0  0  0  0  0999 V2000
    1.3901   29.1077    6.7935 C   0  0  0  0  0  0  0  0  0  0  0  0
   -1.6911   31.9130    8.0794 C   0  0  0  0  0  0  0  0  0  0  0  0
   -0.7437   26.3748    8.8319 C   0  0  0  0  0  0  0  0  0  0  0  0
   -1.3142   25.5567    9.9914 C   0  0  0  0  0  0  0  0  0  0  0  0
   -1.1214   24.0589    9.6854 C   0  0  0  0  0  0  0  0  0  0  0  0
   -1.5824   23.1795   10.8502 C   0  0  0  0  0  0  0  0  0  0  0  0
   -0.8551   23.5463   12.1491 C   0  0  0  0  0  0  0  0  0  0  0  0
   -1.0780   25.0277   12.4857 C   0  0  0  0  0  0  0  0  0  0  0  0
   -0.6321   25.9351   11.3273 C   0  0  0  0  0  0  0  0  0  0  0  0
    4.6903   25.7129    5.8380 C   0  0  0  0  0  0  0  0  0  0  0  0
    4.6667   25.1395    7.1233 C   0  0  0  0  0  0  0  0  0  0  0  0
    3.9496   25.7658    8.1576 C   0  0  0  0  0  0  0  0  0  0  0  0
    3.2460   26.9556    7.8985 C   0  0  0  0  0  0  0  0  0  0  0  0
    0.6302   28.2313    7.4508 N   0  0  0  0  0  0  0  0  0  0  0  0
   -0.4898   28.6252    8.0923 C   0  0  0  0  0  0  0  0  0  0  0  0
   -1.1796   27.7315    8.8832 O   0  0  0  0  0  0  0  0  0  0  0  0
   -0.8660   29.9818    8.0000 C   0  0  0  0  0  0  0  0  0  0  0  0
   -1.9251   30.7129    8.5212 N   0  0  0  0  0  0  0  0  0  0  0  0
   -0.5542   32.0464    7.3306 N   0  0  0  0  0  0  0  0  0  0  0  0
   -0.0249   30.7863    7.2610 C   0  0  0  0  0  0  0  0  0  0  0  0
    1.1172   30.4049    6.6113 N   0  0  0  0  0  0  0  0  0  0  0  0
    2.5827   28.6807    6.3360 N   0  0  0  0  0  0  0  0  0  0  0  0
    3.2365   27.5251    6.6032 C   0  0  0  0  0  0  0  0  0  0  0  0
    3.9871   26.9068    5.5819 C   0  0  0  0  0  0  0  0  0  0  0  0
    5.4311   23.8790    7.4001 S   0  0  0  0  0  0  0  0  0  0  0  0
    5.8108   23.2938    6.1199 O   0  0  0  0  0  0  0  0  0  0  0  0
    6.4234   24.1721    8.4274 O   0  0  0  0  0  0  0  0  0  0  0  0
    4.4921   22.8906    8.0257 N   0  0  0  0  0  0  0  0  0  0  0  0
    3.8604   21.8742    7.2087 C   0  0  0  0  0  0  0  0  0  0  0  0
    4.2167   22.9522    9.4469 C   0  0  0  0  0  0  0  0  0  0  0  0
   -2.3473   32.7449    8.2886 H   0  0  0  0  0  0  0  0  0  0  0  0
    0.3548   26.3504    8.8841 H   0  0  0  0  0  0  0  0  0  0  0  0
   -1.0756   25.9287    7.8828 H   0  0  0  0  0  0  0  0  0  0  0  0
   -2.3913   25.7635   10.0760 H   0  0  0  0  0  0  0  0  0  0  0  0
   -1.7056   23.7998    8.7901 H   0  0  0  0  0  0  0  0  0  0  0  0
   -0.0549   23.8683    9.4951 H   0  0  0  0  0  0  0  0  0  0  0  0
   -2.6643   23.3154   10.9950 H   0  0  0  0  0  0  0  0  0  0  0  0
   -1.3742   22.1268   10.6083 H   0  0  0  0  0  0  0  0  0  0  0  0
   -1.2434   22.9254   12.9699 H   0  0  0  0  0  0  0  0  0  0  0  0
    0.2221   23.3603   12.0266 H   0  0  0  0  0  0  0  0  0  0  0  0
   -2.1477   25.1942   12.6804 H   0  0  0  0  0  0  0  0  0  0  0  0
   -0.4976   25.2825   13.3847 H   0  0  0  0  0  0  0  0  0  0  0  0
    0.4575   25.8452   11.2064 H   0  0  0  0  0  0  0  0  0  0  0  0
   -0.8891   26.9759   11.5737 H   0  0  0  0  0  0  0  0  0  0  0  0
    5.2489   25.2365    5.0459 H   0  0  0  0  0  0  0  0  0  0  0  0
    3.7780   24.5503    6.8530 H   0  0  0  0  0  0  0  0  0  0  0  0
    3.9391   25.3347    9.1478 H   0  0  0  0  0  0  0  0  0  0  0  0
    2.7061   27.4407    8.6982 H   0  0  0  0  0  0  0  0  0  0  0  0
   -2.6805   30.3952    9.0943 H   0  0  0  0  0  0  0  0  0  0  0  0
    4.0232   27.3508    4.5981 H   0  0  0  0  0  0  0  0  0  0  0  0
    3.2118   21.2476    7.8385 H   0  0  0  0  0  0  0  0  0  0  0  0
    3.2563   22.3563    6.4260 H   0  0  0  0  0  0  0  0  0  0  0  0
    4.6336   21.2471    6.7409 H   0  0  0  0  0  0  0  0  0  0  0  0
    3.5112   22.1534    9.7192 H   0  0  0  0  0  0  0  0  0  0  0  0
    5.1537   22.8206   10.0079 H   0  0  0  0  0  0  0  0  0  0  0  0
    3.7763   23.9297    9.6929 H   0  0  0  0  0  0  0  0  0  0  0  0
  1 14  2  0  0  0  0
  1 21  1  0  0  0  0
  1 22  1  0  0  0  0
  2 18  1  0  0  0  0
  2 19  2  0  0  0  0
  3  4  1  0  0  0  0
  3 16  1  0  0  0  0
  4  5  1  0  0  0  0
  4  9  1  0  0  0  0
  5  6  1  0  0  0  0
  6  7  1  0  0  0  0
  7  8  1  0  0  0  0
  8  9  1  0  0  0  0
 10 11  1  0  0  0  0
 10 24  2  0  0  0  0
 11 12  1  0  0  0  0
 11 25  1  0  0  0  0
 12 13  2  0  0  0  0
 13 23  1  0  0  0  0
 14 15  1  0  0  0  0
 15 16  1  0  0  0  0
 15 17  2  0  0  0  0
 17 18  1  0  0  0  0
 17 20  1  0  0  0  0
 19 20  1  0  0  0  0
 20 21  2  0  0  0  0
 22 23  2  0  0  0  0
 23 24  1  0  0  0  0
 25 26  2  0  0  0  0
 25 27  2  0  0  0  0
 25 28  1  0  0  0  0
 28 29  1  0  0  0  0
 28 30  1  0  0  0  0
  2 31  1  0  0  0  0
  3 32  1  0  0  0  0
  3 33  1  0  0  0  0
  4 34  1  0  0  0  0
  5 35  1  0  0  0  0
  5 36  1  0  0  0  0
  6 37  1  0  0  0  0
  6 38  1  0  0  0  0
  7 39  1  0  0  0  0
  7 40  1  0  0  0  0
  8 41  1  0  0  0  0
  8 42  1  0  0  0  0
  9 43  1  0  0  0  0
  9 44  1  0  0  0  0
 10 45  1  0  0  0  0
 11 46  1  0  0  0  0
 12 47  1  0  0  0  0
 13 48  1  0  0  0  0
 18 49  1  0  0  0  0
 24 50  1  0  0  0  0
 29 51  1  0  0  0  0
 29 52  1  0  0  0  0
 29 53  1  0  0  0  0
 30 54  1  0  0  0  0
 30 55  1  0  0  0  0
 30 56  1  0  0  0  0
M  END
> <r_user_dG.exp>
-9.882

$$$$
29
  -OEChem-05162309453D
 Structure written by MMmdl.
 56 59  0     0  0  0  0  0  0999 V2000
    1.3901   29.1077    6.7935 C   0  0  0  0  0  0  0  0  0  0  0  0
   -1.6911   31.9130    8.0794 C   0  0  0  0  0  0  0  0  0  0  0  0
   -0.7437   26.3748    8.8319 C   0  0  0  0  0  0  0  0  0  0  0  0
   -1.3142   25.5567    9.9914 C   0  0  0  0  0  0  0  0  0  0  0  0
   -1.1214   24.0589    9.6854 C   0  0  0  0  0  0  0  0  0  0  0  0
   -1.5824   23.1795   10.8502 C   0  0  0  0  0  0  0  0  0  0  0  0
   -0.8551   23.5463   12.1491 C   0  0  0  0  0  0  0  0  0  0  0  0
   -1.0780   25.0277   12.4857 C   0  0  0  0  0  0  0  0  0  0  0  0
   -0.6321   25.9351   11.3273 C   0  0  0  0  0  0  0  0  0  0  0  0
    4.6903   25.7129    5.8380 C   0  0  0  0  0  0  0  0  0  0  0  0
    4.6667   25.1395    7.1233 C   0  0  0  0  0  0  0  0  0  0  0  0
    3.9496   25.7658    8.1576 C   0  0  0  0  0  0  0  0  0  0  0  0
    3.2460   26.9556    7.8985 C   0  0  0  0  0  0  0  0  0  0  0  0
    0.6302   28.2313    7.4508 N   0  0  0  0  0  0  0  0  0  0  0  0
   -0.4898   28.6252    8.0923 C   0  0  0  0  0  0  0  0  0  0  0  0
   -1.1796   27.7315    8.8832 O   0  0  0  0  0  0  0  0  0  0  0  0
   -0.8660   29.9818    8.0000 C   0  0  0  0  0  0  0  0  0  0  0  0
   -1.9251   30.7129    8.5212 N   0  0  0  0  0  0  0  0  0  0  0  0
   -0.5542   32.0464    7.3306 N   0  0  0  0  0  0  0  0  0  0  0  0
   -0.0249   30.7863    7.2610 C   0  0  0  0  0  0  0  0  0  0  0  0
    1.1172   30.4049    6.6113 N   0  0  0  0  0  0  0  0  0  0  0  0
    2.5827   28.6807    6.3360 N   0  0  0  0  0  0  0  0  0  0  0  0
    3.2365   27.5251    6.6032 C   0  0  0  0  0  0  0  0  0  0  0  0
    3.9871   26.9068    5.5819 C   0  0  0  0  0  0  0  0  0  0  0  0
    5.4311   23.8790    7.4001 S   0  0  0  0  0  0  0  0  0  0  0  0
    5.8108   23.2938    6.1199 O   0  0  0  0  0  0  0  0  0  0  0  0
    6.4234   24.1721    8.4274 O   0  0  0  0  0  0  0  0  0  0  0  0
    4.4921   22.8906    8.0257 N   0  0  0  0  0  0  0  0  0  0  0  0
    3.8604   21.8742    7.2087 C   0  0  0  0  0  0  0  0  0  0  0  0
    4.2167   22.9522    9.4469 C   0  0  0  0  0  0  0  0  0  0  0  0
   -2.3473   32.7449    8.2886 H   0  0  0  0  0  0  0  0  0  0  0  0
    0.3548   26.3504    8.8841 H   0  0  0  0  0  0  0  0  0  0  0  0
   -1.0756   25.9287    7.8828 H   0  0  0  0  0  0  0  0  0  0  0  0
   -2.3913   25.7635   10.0760 H   0  0  0  0  0  0  0  0  0  0  0  0
   -1.7056   23.7998    8.7901 H   0  0  0  0  0  0  0  0  0  0  0  0
   -0.0549   23.8683    9.4951 H   0  0  0  0  0  0  0  0  0  0  0  0
   -2.6643   23.3154   10.9950 H   0  0  0  0  0  0  0  0  0  0  0  0
   -1.3742   22.1268   10.6083 H   0  0  0  0  0  0  0  0  0  0  0  0
   -1.2434   22.9254   12.9699 H   0  0  0  0  0  0  0  0  0  0  0  0
    0.2221   23.3603   12.0266 H   0  0  0  0  0  0  0  0  0  0  0  0
   -2.1477   25.1942   12.6804 H   0  0  0  0  0  0  0  0  0  0  0  0
   -0.4976   25.2825   13.3847 H   0  0  0  0  0  0  0  0  0  0  0  0
    0.4575   25.8452   11.2064 H   0  0  0  0  0  0  0  0  0  0  0  0
   -0.8891   26.9759   11.5737 H   0  0  0  0  0  0  0  0  0  0  0  0
    5.2489   25.2365    5.0459 H   0  0  0  0  0  0  0  0  0  0  0  0
    3.7780   24.5503    6.8530 H   0  0  0  0  0  0  0  0  0  0  0  0
    3.9391   25.3347    9.1478 H   0  0  0  0  0  0  0  0  0  0  0  0
    2.7061   27.4407    8.6982 H   0  0  0  0  0  0  0  0  0  0  0  0
   -0.1890   32.8832    6.9226 H   0  0  0  0  0  0  0  0  0  0  0  0
    4.0232   27.3508    4.5981 H   0  0  0  0  0  0  0  0  0  0  0  0
    3.2118   21.2476    7.8385 H   0  0  0  0  0  0  0  0  0  0  0  0
    3.2563   22.3563    6.4260 H   0  0  0  0  0  0  0  0  0  0  0  0
    4.6336   21.2471    6.7409 H   0  0  0  0  0  0  0  0  0  0  0  0
    3.5112   22.1534    9.7192 H   0  0  0  0  0  0  0  0  0  0  0  0
    5.1537   22.8206   10.0079 H   0  0  0  0  0  0  0  0  0  0  0  0
    3.7763   23.9297    9.6929 H   0  0  0  0  0  0  0  0  0  0  0  0
  1 14  2  0  0  0  0
  1 21  1  0  0  0  0
  1 22  1  0  0  0  0
  2 18  2  0  0  0  0
  2 19  1  0  0  0  0
  3  4  1  0  0  0  0
  3 16  1  0  0  0  0
  4  5  1  0  0  0  0
  4  9  1  0  0  0  0
  5  6  1  0  0  0  0
  6  7  1  0  0  0  0
  7  8  1  0  0  0  0
  8  9  1  0  0  0  0
 10 11  1  0  0  0  0
 10 24  2  0  0  0  0
 11 12  1  0  0  0  0
 11 25  1  0  0  0  0
 12 13  2  0  0  0  0
 13 23  1  0  0  0  0
 14 15  1  0  0  0  0
 15 16  1  0  0  0  0
 15 17  2  0  0  0  0
 17 18  1  0  0  0  0
 17 20  1  0  0  0  0
 19 20  1  0  0  0  0
 20 21  2  0  0  0  0
 22 23  2  0  0  0  0
 23 24  1  0  0  0  0
 25 26  2  0  0  0  0
 25 27  2  0  0  0  0
 25 28  1  0  0  0  0
 28 29  1  0  0  0  0
 28 30  1  0  0  0  0
  2 31  1  0  0  0  0
  3 32  1  0  0  0  0
  3 33  1  0  0  0  0
  4 34  1  0  0  0  0
  5 35  1  0  0  0  0
  5 36  1  0  0  0  0
  6 37  1  0  0  0  0
  6 38  1  0  0  0  0
  7 39  1  0  0  0  0
  7 40  1  0  0  0  0
  8 41  1  0  0  0  0
  8 42  1  0  0  0  0
  9 43  1  0  0  0  0
  9 44  1  0  0  0  0
 10 45  1  0  0  0  0
 11 46  1  0  0  0  0
 12 47  1  0  0  0  0
 13 48  1  0  0  0  0
 19 49  1  0  0  0  0
 24 50  1  0  0  0  0
 29 51  1  0  0  0  0
 29 52  1  0  0  0  0
 29 53  1  0  0  0  0
 30 54  1  0  0  0  0
 30 55  1  0  0  0  0
 30 56  1  0  0  0  0
M  END
> <r_user_dG.exp>
-9.882

$$$$
29
  -OEChem-05162309453D
 Structure written by MMmdl.
 56 59  0     0  0  0  0  0  0999 V2000
    1.3901   29.1077    6.7935 C   0  0  0  0  0  0  0  0  0  0  0  0
   -1.6911   31.9130    8.0794 C   0  0  0  0  0  0  0  0  0  0  0  0
   -0.7437   26.3748    8.8319 C   0  0  0  0  0  0  0  0  0  0  0  0
   -1.3142   25.5567    9.9914 C   0  0  0  0  0  0  0  0  0  0  0  0
   -1.1214   24.0589    9.6854 C   0  0  0  0  0  0  0  0  0  0  0  0
   -1.5824   23.1795   10.8502 C   0  0  0  0  0  0  0  0  0  0  0  0
   -0.8551   23.5463   12.1491 C   0  0  0  0  0  0  0  0  0  0  0  0
   -1.0780   25.0277   12.4857 C   0  0  0  0  0  0  0  0  0  0  0  0
   -0.6321   25.9351   11.3273 C   0  0  0  0  0  0  0  0  0  0  0  0
    4.6903   25.7129    5.8380 C   0  0  0  0  0  0  0  0  0  0  0  0
    4.6667   25.1395    7.1233 C   0  0  0  0  0  0  0  0  0  0  0  0
    3.9496   25.7658    8.1576 C   0  0  0  0  0  0  0  0  0  0  0  0
    3.2460   26.9556    7.8985 C   0  0  0  0  0  0  0  0  0  0  0  0
    0.6302   28.2313    7.4508 N   0  0  0  0  0  0  0  0  0  0  0  0
   -0.4898   28.6252    8.0923 C   0  0  0  0  0  0  0  0  0  0  0  0
   -1.1796   27.7315    8.8832 O   0  0  0  0  0  0  0  0  0  0  0  0
   -0.8660   29.9818    8.0000 C   0  0  0  0  0  0  0  0  0  0  0  0
   -1.9251   30.7129    8.5212 N   0  0  0  0  0  0  0  0  0  0  0  0
   -0.5542   32.0464    7.3306 N   0  0  0  0  0  0  0  0  0  0  0  0
   -0.0249   30.7863    7.2610 C   0  0  0  0  0  0  0  0  0  0  0  0
    1.1172   30.4049    6.6113 N   0  0  0  0  0  0  0  0  0  0  0  0
    2.5827   28.6807    6.3360 N   0  0  0  0  0  0  0  0  0  0  0  0
    3.2365   27.5251    6.6032 C   0  0  0  0  0  0  0  0  0  0  0  0
    3.9871   26.9068    5.5819 C   0  0  0  0  0  0  0  0  0  0  0  0
    5.4311   23.8790    7.4001 S   0  0  0  0  0  0  0  0  0  0  0  0
    5.8108   23.2938    6.1199 O   0  0  0  0  0  0  0  0  0  0  0  0
    6.4234   24.1721    8.4274 O   0  0  0  0  0  0  0  0  0  0  0  0
    4.4921   22.8906    8.0257 N   0  0  0  0  0  0  0  0  0  0  0  0
    3.8604   21.8742    7.2087 C   0  0  0  0  0  0  0  0  0  0  0  0
    4.2167   22.9522    9.4469 C   0  0  0  0  0  0  0  0  0  0  0  0
   -2.3473   32.7449    8.2886 H   0  0  0  0  0  0  0  0  0  0  0  0
    0.3548   26.3504    8.8841 H   0  0  0  0  0  0  0  0  0  0  0  0
   -1.0756   25.9287    7.8828 H   0  0  0  0  0  0  0  0  0  0  0  0
   -2.3913   25.7635   10.0760 H   0  0  0  0  0  0  0  0  0  0  0  0
   -1.7056   23.7998    8.7901 H   0  0  0  0  0  0  0  0  0  0  0  0
   -0.0549   23.8683    9.4951 H   0  0  0  0  0  0  0  0  0  0  0  0
   -2.6643   23.3154   10.9950 H   0  0  0  0  0  0  0  0  0  0  0  0
   -1.3742   22.1268   10.6083 H   0  0  0  0  0  0  0  0  0  0  0  0
   -1.2434   22.9254   12.9699 H   0  0  0  0  0  0  0  0  0  0  0  0
    0.2221   23.3603   12.0266 H   0  0  0  0  0  0  0  0  0  0  0  0
   -2.1477   25.1942   12.6804 H   0  0  0  0  0  0  0  0  0  0  0  0
   -0.4976   25.2825   13.3847 H   0  0  0  0  0  0  0  0  0  0  0  0
    0.4575   25.8452   11.2064 H   0  0  0  0  0  0  0  0  0  0  0  0
   -0.8891   26.9759   11.5737 H   0  0  0  0  0  0  0  0  0  0  0  0
    5.2489   25.2365    5.0459 H   0  0  0  0  0  0  0  0  0  0  0  0
    3.9391   25.3347    9.1478 H   0  0  0  0  0  0  0  0  0  0  0  0
    2.7061   27.4407    8.6982 H   0  0  0  0  0  0  0  0  0  0  0  0
   -2.6805   30.3952    9.0943 H   0  0  0  0  0  0  0  0  0  0  0  0
    4.7300   27.6448    5.2450 H   0  0  0  0  0  0  0  0  0  0  0  0
    3.2866   26.6910    4.7617 H   0  0  0  0  0  0  0  0  0  0  0  0
    3.2118   21.2476    7.8385 H   0  0  0  0  0  0  0  0  0  0  0  0
    3.2563   22.3563    6.4260 H   0  0  0  0  0  0  0  0  0  0  0  0
    4.6336   21.2471    6.7409 H   0  0  0  0  0  0  0  0  0  0  0  0
    3.5112   22.1534    9.7192 H   0  0  0  0  0  0  0  0  0  0  0  0
    5.1537   22.8206   10.0079 H   0  0  0  0  0  0  0  0  0  0  0  0
    3.7763   23.9297    9.6929 H   0  0  0  0  0  0  0  0  0  0  0  0
  1 14  2  0  0  0  0
  1 21  1  0  0  0  0
  1 22  1  0  0  0  0
  2 18  1  0  0  0  0
  2 19  2  0  0  0  0
  3  4  1  0  0  0  0
  3 16  1  0  0  0  0
  4  5  1  0  0  0  0
  4  9  1  0  0  0  0
  5  6  1  0  0  0  0
  6  7  1  0  0  0  0
  7  8  1  0  0  0  0
  8  9  1  0  0  0  0
 10 11  2  0  0  0  0
 10 24  1  0  0  0  0
 11 12  1  0  0  0  0
 11 25  1  0  0  0  0
 12 13  2  0  0  0  0
 13 23  1  0  0  0  0
 14 15  1  0  0  0  0
 15 16  1  0  0  0  0
 15 17  2  0  0  0  0
 17 18  1  0  0  0  0
 17 20  1  0  0  0  0
 19 20  1  0  0  0  0
 20 21  2  0  0  0  0
 22 23  2  3  0  0  0
 23 24  1  0  0  0  0
 25 26  2  0  0  0  0
 25 27  2  0  0  0  0
 25 28  1  0  0  0  0
 28 29  1  0  0  0  0
 28 30  1  0  0  0  0
  2 31  1  0  0  0  0
  3 32  1  0  0  0  0
  3 33  1  0  0  0  0
  4 34  1  0  0  0  0
  5 35  1  0  0  0  0
  5 36  1  0  0  0  0
  6 37  1  0  0  0  0
  6 38  1  0  0  0  0
  7 39  1  0  0  0  0
  7 40  1  0  0  0  0
  8 41  1  0  0  0  0
  8 42  1  0  0  0  0
  9 43  1  0  0  0  0
  9 44  1  0  0  0  0
 10 45  1  0  0  0  0
 12 46  1  0  0  0  0
 13 47  1  0  0  0  0
 18 48  1  0  0  0  0
 24 49  1  0  0  0  0
 24 50  1  0  0  0  0
 29 51  1  0  0  0  0
 29 52  1  0  0  0  0
 29 53  1  0  0  0  0
 30 54  1  0  0  0  0
 30 55  1  0  0  0  0
 30 56  1  0  0  0  0
M  END
> <r_user_dG.exp>
-9.882

$$$$
29
  -OEChem-05162309453D
 Structure written by MMmdl.
 56 59  0     0  0  0  0  0  0999 V2000
    1.3901   29.1077    6.7935 C   0  0  0  0  0  0  0  0  0  0  0  0
   -1.6911   31.9130    8.0794 C   0  0  0  0  0  0  0  0  0  0  0  0
   -0.7437   26.3748    8.8319 C   0  0  0  0  0  0  0  0  0  0  0  0
   -1.3142   25.5567    9.9914 C   0  0  0  0  0  0  0  0  0  0  0  0
   -1.1214   24.0589    9.6854 C   0  0  0  0  0  0  0  0  0  0  0  0
   -1.5824   23.1795   10.8502 C   0  0  0  0  0  0  0  0  0  0  0  0
   -0.8551   23.5463   12.1491 C   0  0  0  0  0  0  0  0  0  0  0  0
   -1.0780   25.0277   12.4857 C   0  0  0  0  0  0  0  0  0  0  0  0
   -0.6321   25.9351   11.3273 C   0  0  0  0  0  0  0  0  0  0  0  0
    4.6903   25.7129    5.8380 C   0  0  0  0  0  0  0  0  0  0  0  0
    4.6667   25.1395    7.1233 C   0  0  0  0  0  0  0  0  0  0  0  0
    3.9496   25.7658    8.1576 C   0  0  0  0  0  0  0  0  0  0  0  0
    3.2460   26.9556    7.8985 C   0  0  0  0  0  0  0  0  0  0  0  0
    0.6302   28.2313    7.4508 N   0  0  0  0  0  0  0  0  0  0  0  0
   -0.4898   28.6252    8.0923 C   0  0  0  0  0  0  0  0  0  0  0  0
   -1.1796   27.7315    8.8832 O   0  0  0  0  0  0  0  0  0  0  0  0
   -0.8660   29.9818    8.0000 C   0  0  0  0  0  0  0  0  0  0  0  0
   -1.9251   30.7129    8.5212 N   0  0  0  0  0  0  0  0  0  0  0  0
   -0.5542   32.0464    7.3306 N   0  0  0  0  0  0  0  0  0  0  0  0
   -0.0249   30.7863    7.2610 C   0  0  0  0  0  0  0  0  0  0  0  0
    1.1172   30.4049    6.6113 N   0  0  0  0  0  0  0  0  0  0  0  0
    2.5827   28.6807    6.3360 N   0  0  0  0  0  0  0  0  0  0  0  0
    3.2365   27.5251    6.6032 C   0  0  0  0  0  0  0  0  0  0  0  0
    3.9871   26.9068    5.5819 C   0  0  0  0  0  0  0  0  0  0  0  0
    5.4311   23.8790    7.4001 S   0  0  0  0  0  0  0  0  0  0  0  0
    5.8108   23.2938    6.1199 O   0  0  0  0  0  0  0  0  0  0  0  0
    6.4234   24.1721    8.4274 O   0  0  0  0  0  0  0  0  0  0  0  0
    4.4921   22.8906    8.0257 N   0  0  0  0  0  0  0  0  0  0  0  0
    3.8604   21.8742    7.2087 C   0  0  0  0  0  0  0  0  0  0  0  0
    4.2167   22.9522    9.4469 C   0  0  0  0  0  0  0  0  0  0  0  0
   -2.3473   32.7449    8.2886 H   0  0  0  0  0  0  0  0  0  0  0  0
    0.3548   26.3504    8.8841 H   0  0  0  0  0  0  0  0  0  0  0  0
   -1.0756   25.9287    7.8828 H   0  0  0  0  0  0  0  0  0  0  0  0
   -2.3913   25.7635   10.0760 H   0  0  0  0  0  0  0  0  0  0  0  0
   -1.7056   23.7998    8.7901 H   0  0  0  0  0  0  0  0  0  0  0  0
   -0.0549   23.8683    9.4951 H   0  0  0  0  0  0  0  0  0  0  0  0
   -2.6643   23.3154   10.9950 H   0  0  0  0  0  0  0  0  0  0  0  0
   -1.3742   22.1268   10.6083 H   0  0  0  0  0  0  0  0  0  0  0  0
   -1.2434   22.9254   12.9699 H   0  0  0  0  0  0  0  0  0  0  0  0
    0.2221   23.3603   12.0266 H   0  0  0  0  0  0  0  0  0  0  0  0
   -2.1477   25.1942   12.6804 H   0  0  0  0  0  0  0  0  0  0  0  0
   -0.4976   25.2825   13.3847 H   0  0  0  0  0  0  0  0  0  0  0  0
    0.4575   25.8452   11.2064 H   0  0  0  0  0  0  0  0  0  0  0  0
   -0.8891   26.9759   11.5737 H   0  0  0  0  0  0  0  0  0  0  0  0
    5.2489   25.2365    5.0459 H   0  0  0  0  0  0  0  0  0  0  0  0
    3.9391   25.3347    9.1478 H   0  0  0  0  0  0  0  0  0  0  0  0
    2.7061   27.4407    8.6982 H   0  0  0  0  0  0  0  0  0  0  0  0
   -0.1890   32.8832    6.9226 H   0  0  0  0  0  0  0  0  0  0  0  0
    4.7300   27.6448    5.2450 H   0  0  0  0  0  0  0  0  0  0  0  0
    3.2866   26.6910    4.7617 H   0  0  0  0  0  0  0  0  0  0  0  0
    3.2118   21.2476    7.8385 H   0  0  0  0  0  0  0  0  0  0  0  0
    3.2563   22.3563    6.4260 H   0  0  0  0  0  0  0  0  0  0  0  0
    4.6336   21.2471    6.7409 H   0  0  0  0  0  0  0  0  0  0  0  0
    3.5112   22.1534    9.7192 H   0  0  0  0  0  0  0  0  0  0  0  0
    5.1537   22.8206   10.0079 H   0  0  0  0  0  0  0  0  0  0  0  0
    3.7763   23.9297    9.6929 H   0  0  0  0  0  0  0  0  0  0  0  0
  1 14  2  0  0  0  0
  1 21  1  0  0  0  0
  1 22  1  0  0  0  0
  2 18  2  0  0  0  0
  2 19  1  0  0  0  0
  3  4  1  0  0  0  0
  3 16  1  0  0  0  0
  4  5  1  0  0  0  0
  4  9  1  0  0  0  0
  5  6  1  0  0  0  0
  6  7  1  0  0  0  0
  7  8  1  0  0  0  0
  8  9  1  0  0  0  0
 10 11  2  0  0  0  0
 10 24  1  0  0  0  0
 11 12  1  0  0  0  0
 11 25  1  0  0  0  0
 12 13  2  0  0  0  0
 13 23  1  0  0  0  0
 14 15  1  0  0  0  0
 15 16  1  0  0  0  0
 15 17  2  0  0  0  0
 17 18  1  0  0  0  0
 17 20  1  0  0  0  0
 19 20  1  0  0  0  0
 20 21  2  0  0  0  0
 22 23  2  3  0  0  0
 23 24  1  0  0  0  0
 25 26  2  0  0  0  0
 25 27  2  0  0  0  0
 25 28  1  0  0  0  0
 28 29  1  0  0  0  0
 28 30  1  0  0  0  0
  2 31  1  0  0  0  0
  3 32  1  0  0  0  0
  3 33  1  0  0  0  0
  4 34  1  0  0  0  0
  5 35  1  0  0  0  0
  5 36  1  0  0  0  0
  6 37  1  0  0  0  0
  6 38  1  0  0  0  0
  7 39  1  0  0  0  0
  7 40  1  0  0  0  0
  8 41  1  0  0  0  0
  8 42  1  0  0  0  0
  9 43  1  0  0  0  0
  9 44  1  0  0  0  0
 10 45  1  0  0  0  0
 12 46  1  0  0  0  0
 13 47  1  0  0  0  0
 19 48  1  0  0  0  0
 24 49  1  0  0  0  0
 24 50  1  0  0  0  0
 29 51  1  0  0  0  0
 29 52  1  0  0  0  0
 29 53  1  0  0  0  0
 30 54  1  0  0  0  0
 30 55  1  0  0  0  0
 30 56  1  0  0  0  0
M  END
> <r_user_dG.exp>
-9.882

$$$$
29
  -OEChem-05162309453D
 Structure written by MMmdl.
 56 59  0     0  0  0  0  0  0999 V2000
    1.3901   29.1077    6.7935 C   0  0  0  0  0  0  0  0  0  0  0  0
   -1.6911   31.9130    8.0794 C   0  0  0  0  0  0  0  0  0  0  0  0
   -0.7437   26.3748    8.8319 C   0  0  0  0  0  0  0  0  0  0  0  0
   -1.3142   25.5567    9.9914 C   0  0  0  0  0  0  0  0  0  0  0  0
   -1.1214   24.0589    9.6854 C   0  0  0  0  0  0  0  0  0  0  0  0
   -1.5824   23.1795   10.8502 C   0  0  0  0  0  0  0  0  0  0  0  0
   -0.8551   23.5463   12.1491 C   0  0  0  0  0  0  0  0  0  0  0  0
   -1.0780   25.0277   12.4857 C   0  0  0  0  0  0  0  0  0  0  0  0
   -0.6321   25.9351   11.3273 C   0  0  0  0  0  0  0  0  0  0  0  0
    4.6903   25.7129    5.8380 C   0  0  0  0  0  0  0  0  0  0  0  0
    4.6667   25.1395    7.1233 C   0  0  0  0  0  0  0  0  0  0  0  0
    3.9496   25.7658    8.1576 C   0  0  0  0  0  0  0  0  0  0  0  0
    3.2460   26.9556    7.8985 C   0  0  0  0  0  0  0  0  0  0  0  0
    0.6302   28.2313    7.4508 N   0  0  0  0  0  0  0  0  0  0  0  0
   -0.4898   28.6252    8.0923 C   0  0  0  0  0  0  0  0  0  0  0  0
   -1.1796   27.7315    8.8832 O   0  0  0  0  0  0  0  0  0  0  0  0
   -0.8660   29.9818    8.0000 C   0  0  0  0  0  0  0  0  0  0  0  0
   -1.9251   30.7129    8.5212 N   0  0  0  0  0  0  0  0  0  0  0  0
   -0.5542   32.0464    7.3306 N   0  0  0  0  0  0  0  0  0  0  0  0
   -0.0249   30.7863    7.2610 C   0  0  0  0  0  0  0  0  0  0  0  0
    1.1172   30.4049    6.6113 N   0  0  0  0  0  0  0  0  0  0  0  0
    2.5827   28.6807    6.3360 N   0  0  0  0  0  0  0  0  0  0  0  0
    3.2365   27.5251    6.6032 C   0  0  0  0  0  0  0  0  0  0  0  0
    3.9871   26.9068    5.5819 C   0  0  0  0  0  0  0  0  0  0  0  0
    5.4311   23.8790    7.4001 S   0  0  0  0  0  0  0  0  0  0  0  0
    5.8108   23.2938    6.1199 O   0  0  0  0  0  0  0  0  0  0  0  0
    6.4234   24.1721    8.4274 O   0  0  0  0  0  0  0  0  0  0  0  0
    4.4921   22.8906    8.0257 N   0  0  0  0  0  0  0  0  0  0  0  0
    3.8604   21.8742    7.2087 C   0  0  0  0  0  0  0  0  0  0  0  0
    4.2167   22.9522    9.4469 C   0  0  0  0  0  0  0  0  0  0  0  0
   -2.3473   32.7449    8.2886 H   0  0  0  0  0  0  0  0  0  0  0  0
    0.3548   26.3504    8.8841 H   0  0  0  0  0  0  0  0  0  0  0  0
   -1.0756   25.9287    7.8828 H   0  0  0  0  0  0  0  0  0  0  0  0
   -2.3913   25.7635   10.0760 H   0  0  0  0  0  0  0  0  0  0  0  0
   -1.7056   23.7998    8.7901 H   0  0  0  0  0  0  0  0  0  0  0  0
   -0.0549   23.8683    9.4951 H   0  0  0  0  0  0  0  0  0  0  0  0
   -2.6643   23.3154   10.9950 H   0  0  0  0  0  0  0  0  0  0  0  0
   -1.3742   22.1268   10.6083 H   0  0  0  0  0  0  0  0  0  0  0  0
   -1.2434   22.9254   12.9699 H   0  0  0  0  0  0  0  0  0  0  0  0
    0.2221   23.3603   12.0266 H   0  0  0  0  0  0  0  0  0  0  0  0
   -2.1477   25.1942   12.6804 H   0  0  0  0  0  0  0  0  0  0  0  0
   -0.4976   25.2825   13.3847 H   0  0  0  0  0  0  0  0  0  0  0  0
    0.4575   25.8452   11.2064 H   0  0  0  0  0  0  0  0  0  0  0  0
   -0.8891   26.9759   11.5737 H   0  0  0  0  0  0  0  0  0  0  0  0
    5.2489   25.2365    5.0459 H   0  0  0  0  0  0  0  0  0  0  0  0
    3.7780   24.5503    6.8530 H   0  0  0  0  0  0  0  0  0  0  0  0
    3.9391   25.3347    9.1478 H   0  0  0  0  0  0  0  0  0  0  0  0
    2.7061   27.4407    8.6982 H   0  0  0  0  0  0  0  0  0  0  0  0
    1.6818   31.0231    6.0644 H   0  0  0  0  0  0  0  0  0  0  0  0
    4.0232   27.3508    4.5981 H   0  0  0  0  0  0  0  0  0  0  0  0
    3.2118   21.2476    7.8385 H   0  0  0  0  0  0  0  0  0  0  0  0
    3.2563   22.3563    6.4260 H   0  0  0  0  0  0  0  0  0  0  0  0
    4.6336   21.2471    6.7409 H   0  0  0  0  0  0  0  0  0  0  0  0
    3.5112   22.1534    9.7192 H   0  0  0  0  0  0  0  0  0  0  0  0
    5.1537   22.8206   10.0079 H   0  0  0  0  0  0  0  0  0  0  0  0
    3.7763   23.9297    9.6929 H   0  0  0  0  0  0  0  0  0  0  0  0
  1 14  2  0  0  0  0
  1 21  1  0  0  0  0
  1 22  1  0  0  0  0
  2 18  2  0  0  0  0
  2 19  1  0  0  0  0
  3  4  1  0  0  0  0
  3 16  1  0  0  0  0
  4  5  1  0  0  0  0
  4  9  1  0  0  0  0
  5  6  1  0  0  0  0
  6  7  1  0  0  0  0
  7  8  1  0  0  0  0
  8  9  1  0  0  0  0
 10 11  1  0  0  0  0
 10 24  2  0  0  0  0
 11 12  1  0  0  0  0
 11 25  1  0  0  0  0
 12 13  2  0  0  0  0
 13 23  1  0  0  0  0
 14 15  1  0  0  0  0
 15 16  1  0  0  0  0
 15 17  2  0  0  0  0
 17 18  1  0  0  0  0
 17 20  1  0  0  0  0
 19 20  2  0  0  0  0
 20 21  1  0  0  0  0
 22 23  2  0  0  0  0
 23 24  1  0  0  0  0
 25 26  2  0  0  0  0
 25 27  2  0  0  0  0
 25 28  1  0  0  0  0
 28 29  1  0  0  0  0
 28 30  1  0  0  0  0
  2 31  1  0  0  0  0
  3 32  1  0  0  0  0
  3 33  1  0  0  0  0
  4 34  1  0  0  0  0
  5 35  1  0  0  0  0
  5 36  1  0  0  0  0
  6 37  1  0  0  0  0
  6 38  1  0  0  0  0
  7 39  1  0  0  0  0
  7 40  1  0  0  0  0
  8 41  1  0  0  0  0
  8 42  1  0  0  0  0
  9 43  1  0  0  0  0
  9 44  1  0  0  0  0
 10 45  1  0  0  0  0
 11 46  1  0  0  0  0
 12 47  1  0  0  0  0
 13 48  1  0  0  0  0
 21 49  1  0  0  0  0
 24 50  1  0  0  0  0
 29 51  1  0  0  0  0
 29 52  1  0  0  0  0
 29 53  1  0  0  0  0
 30 54  1  0  0  0  0
 30 55  1  0  0  0  0
 30 56  1  0  0  0  0
M  END
> <r_user_dG.exp>
-9.882

$$$$
29
  -OEChem-05162309453D
 Structure written by MMmdl.
 56 59  0     0  0  0  0  0  0999 V2000
    1.3901   29.1077    6.7935 C   0  0  0  0  0  0  0  0  0  0  0  0
   -1.6911   31.9130    8.0794 C   0  0  0  0  0  0  0  0  0  0  0  0
   -0.7437   26.3748    8.8319 C   0  0  0  0  0  0  0  0  0  0  0  0
   -1.3142   25.5567    9.9914 C   0  0  0  0  0  0  0  0  0  0  0  0
   -1.1214   24.0589    9.6854 C   0  0  0  0  0  0  0  0  0  0  0  0
   -1.5824   23.1795   10.8502 C   0  0  0  0  0  0  0  0  0  0  0  0
   -0.8551   23.5463   12.1491 C   0  0  0  0  0  0  0  0  0  0  0  0
   -1.0780   25.0277   12.4857 C   0  0  0  0  0  0  0  0  0  0  0  0
   -0.6321   25.9351   11.3273 C   0  0  0  0  0  0  0  0  0  0  0  0
    4.6903   25.7129    5.8380 C   0  0  0  0  0  0  0  0  0  0  0  0
    4.6667   25.1395    7.1233 C   0  0  0  0  0  0  0  0  0  0  0  0
    3.9496   25.7658    8.1576 C   0  0  0  0  0  0  0  0  0  0  0  0
    3.2460   26.9556    7.8985 C   0  0  0  0  0  0  0  0  0  0  0  0
    0.6302   28.2313    7.4508 N   0  0  0  0  0  0  0  0  0  0  0  0
   -0.4898   28.6252    8.0923 C   0  0  0  0  0  0  0  0  0  0  0  0
   -1.1796   27.7315    8.8832 O   0  0  0  0  0  0  0  0  0  0  0  0
   -0.8660   29.9818    8.0000 C   0  0  0  0  0  0  0  0  0  0  0  0
   -1.9251   30.7129    8.5212 N   0  0  0  0  0  0  0  0  0  0  0  0
   -0.5542   32.0464    7.3306 N   0  0  0  0  0  0  0  0  0  0  0  0
   -0.0249   30.7863    7.2610 C   0  0  0  0  0  0  0  0  0  0  0  0
    1.1172   30.4049    6.6113 N   0  0  0  0  0  0  0  0  0  0  0  0
    2.5827   28.6807    6.3360 N   0  0  0  0  0  0  0  0  0  0  0  0
    3.2365   27.5251    6.6032 C   0  0  0  0  0  0  0  0  0  0  0  0
    3.9871   26.9068    5.5819 C   0  0  0  0  0  0  0  0  0  0  0  0
    5.4311   23.8790    7.4001 S   0  0  0  0  0  0  0  0  0  0  0  0
    5.8108   23.2938    6.1199 O   0  0  0  0  0  0  0  0  0  0  0  0
    6.4234   24.1721    8.4274 O   0  0  0  0  0  0  0  0  0  0  0  0
    4.4921   22.8906    8.0257 N   0  0  0  0  0  0  0  0  0  0  0  0
    3.8604   21.8742    7.2087 C   0  0  0  0  0  0  0  0  0  0  0  0
    4.2167   22.9522    9.4469 C   0  0  0  0  0  0  0  0  0  0  0  0
   -2.3473   32.7449    8.2886 H   0  0  0  0  0  0  0  0  0  0  0  0
    0.3548   26.3504    8.8841 H   0  0  0  0  0  0  0  0  0  0  0  0
   -1.0756   25.9287    7.8828 H   0  0  0  0  0  0  0  0  0  0  0  0
   -2.3913   25.7635   10.0760 H   0  0  0  0  0  0  0  0  0  0  0  0
   -1.7056   23.7998    8.7901 H   0  0  0  0  0  0  0  0  0  0  0  0
   -0.0549   23.8683    9.4951 H   0  0  0  0  0  0  0  0  0  0  0  0
   -2.6643   23.3154   10.9950 H   0  0  0  0  0  0  0  0  0  0  0  0
   -1.3742   22.1268   10.6083 H   0  0  0  0  0  0  0  0  0  0  0  0
   -1.2434   22.9254   12.9699 H   0  0  0  0  0  0  0  0  0  0  0  0
    0.2221   23.3603   12.0266 H   0  0  0  0  0  0  0  0  0  0  0  0
   -2.1477   25.1942   12.6804 H   0  0  0  0  0  0  0  0  0  0  0  0
   -0.4976   25.2825   13.3847 H   0  0  0  0  0  0  0  0  0  0  0  0
    0.4575   25.8452   11.2064 H   0  0  0  0  0  0  0  0  0  0  0  0
   -0.8891   26.9759   11.5737 H   0  0  0  0  0  0  0  0  0  0  0  0
    5.2489   25.2365    5.0459 H   0  0  0  0  0  0  0  0  0  0  0  0
    3.7780   24.5503    6.8530 H   0  0  0  0  0  0  0  0  0  0  0  0
    3.9391   25.3347    9.1478 H   0  0  0  0  0  0  0  0  0  0  0  0
    2.7061   27.4407    8.6982 H   0  0  0  0  0  0  0  0  0  0  0  0
    0.8943   27.2670    7.4687 H   0  0  0  0  0  0  0  0  0  0  0  0
    4.0232   27.3508    4.5981 H   0  0  0  0  0  0  0  0  0  0  0  0
    3.2118   21.2476    7.8385 H   0  0  0  0  0  0  0  0  0  0  0  0
    3.2563   22.3563    6.4260 H   0  0  0  0  0  0  0  0  0  0  0  0
    4.6336   21.2471    6.7409 H   0  0  0  0  0  0  0  0  0  0  0  0
    3.5112   22.1534    9.7192 H   0  0  0  0  0  0  0  0  0  0  0  0
    5.1537   22.8206   10.0079 H   0  0  0  0  0  0  0  0  0  0  0  0
    3.7763   23.9297    9.6929 H   0  0  0  0  0  0  0  0  0  0  0  0
  1 14  1  0  0  0  0
  1 21  2  0  0  0  0
  1 22  1  0  0  0  0
  2 18  2  0  0  0  0
  2 19  1  0  0  0  0
  3  4  1  0  0  0  0
  3 16  1  0  0  0  0
  4  5  1  0  0  0  0
  4  9  1  0  0  0  0
  5  6  1  0  0  0  0
  6  7  1  0  0  0  0
  7  8  1  0  0  0  0
  8  9  1  0  0  0  0
 10 11  1  0  0  0  0
 10 24  2  0  0  0  0
 11 12  1  0  0  0  0
 11 25  1  0  0  0  0
 12 13  2  0  0  0  0
 13 23  1  0  0  0  0
 14 15  1  0  0  0  0
 15 16  1  0  0  0  0
 15 17  2  0  0  0  0
 17 18  1  0  0  0  0
 17 20  1  0  0  0  0
 19 20  2  0  0  0  0
 20 21  1  0  0  0  0
 22 23  2  0  0  0  0
 23 24  1  0  0  0  0
 25 26  2  0  0  0  0
 25 27  2  0  0  0  0
 25 28  1  0  0  0  0
 28 29  1  0  0  0  0
 28 30  1  0  0  0  0
  2 31  1  0  0  0  0
  3 32  1  0  0  0  0
  3 33  1  0  0  0  0
  4 34  1  0  0  0  0
  5 35  1  0  0  0  0
  5 36  1  0  0  0  0
  6 37  1  0  0  0  0
  6 38  1  0  0  0  0
  7 39  1  0  0  0  0
  7 40  1  0  0  0  0
  8 41  1  0  0  0  0
  8 42  1  0  0  0  0
  9 43  1  0  0  0  0
  9 44  1  0  0  0  0
 10 45  1  0  0  0  0
 11 46  1  0  0  0  0
 12 47  1  0  0  0  0
 13 48  1  0  0  0  0
 14 49  1  0  0  0  0
 24 50  1  0  0  0  0
 29 51  1  0  0  0  0
 29 52  1  0  0  0  0
 29 53  1  0  0  0  0
 30 54  1  0  0  0  0
 30 55  1  0  0  0  0
 30 56  1  0  0  0  0
M  END
> <r_user_dG.exp>
-9.882

$$$$
29
  -OEChem-05162309453D
 Structure written by MMmdl.
 56 59  0     0  0  0  0  0  0999 V2000
    1.3901   29.1077    6.7935 C   0  0  0  0  0  0  0  0  0  0  0  0
   -1.6911   31.9130    8.0794 C   0  0  0  0  0  0  0  0  0  0  0  0
   -0.7437   26.3748    8.8319 C   0  0  0  0  0  0  0  0  0  0  0  0
   -1.3142   25.5567    9.9914 C   0  0  0  0  0  0  0  0  0  0  0  0
   -1.1214   24.0589    9.6854 C   0  0  0  0  0  0  0  0  0  0  0  0
   -1.5824   23.1795   10.8502 C   0  0  0  0  0  0  0  0  0  0  0  0
   -0.8551   23.5463   12.1491 C   0  0  0  0  0  0  0  0  0  0  0  0
   -1.0780   25.0277   12.4857 C   0  0  0  0  0  0  0  0  0  0  0  0
   -0.6321   25.9351   11.3273 C   0  0  0  0  0  0  0  0  0  0  0  0
    4.6903   25.7129    5.8380 C   0  0  0  0  0  0  0  0  0  0  0  0
    4.6667   25.1395    7.1233 C   0  0  0  0  0  0  0  0  0  0  0  0
    3.9496   25.7658    8.1576 C   0  0  0  0  0  0  0  0  0  0  0  0
    3.2460   26.9556    7.8985 C   0  0  0  0  0  0  0  0  0  0  0  0
    0.6302   28.2313    7.4508 N   0  0  0  0  0  0  0  0  0  0  0  0
   -0.4898   28.6252    8.0923 C   0  0  0  0  0  0  0  0  0  0  0  0
   -1.1796   27.7315    8.8832 O   0  0  0  0  0  0  0  0  0  0  0  0
   -0.8660   29.9818    8.0000 C   0  0  0  0  0  0  0  0  0  0  0  0
   -1.9251   30.7129    8.5212 N   0  0  0  0  0  0  0  0  0  0  0  0
   -0.5542   32.0464    7.3306 N   0  0  0  0  0  0  0  0  0  0  0  0
   -0.0249   30.7863    7.2610 C   0  0  0  0  0  0  0  0  0  0  0  0
    1.1172   30.4049    6.6113 N   0  0  0  0  0  0  0  0  0  0  0  0
    2.5827   28.6807    6.3360 N   0  0  0  0  0  0  0  0  0  0  0  0
    3.2365   27.5251    6.6032 C   0  0  0  0  0  0  0  0  0  0  0  0
    3.9871   26.9068    5.5819 C   0  0  0  0  0  0  0  0  0  0  0  0
    5.4311   23.8790    7.4001 S   0  0  0  0  0  0  0  0  0  0  0  0
    5.8108   23.2938    6.1199 O   0  0  0  0  0  0  0  0  0  0  0  0
    6.4234   24.1721    8.4274 O   0  0  0  0  0  0  0  0  0  0  0  0
    4.4921   22.8906    8.0257 N   0  0  0  0  0  0  0  0  0  0  0  0
    3.8604   21.8742    7.2087 C   0  0  0  0  0  0  0  0  0  0  0  0
    4.2167   22.9522    9.4469 C   0  0  0  0  0  0  0  0  0  0  0  0
   -2.3473   32.7449    8.2886 H   0  0  0  0  0  0  0  0  0  0  0  0
    0.3548   26.3504    8.8841 H   0  0  0  0  0  0  0  0  0  0  0  0
   -1.0756   25.9287    7.8828 H   0  0  0  0  0  0  0  0  0  0  0  0
   -2.3913   25.7635   10.0760 H   0  0  0  0  0  0  0  0  0  0  0  0
   -1.7056   23.7998    8.7901 H   0  0  0  0  0  0  0  0  0  0  0  0
   -0.0549   23.8683    9.4951 H   0  0  0  0  0  0  0  0  0  0  0  0
   -2.6643   23.3154   10.9950 H   0  0  0  0  0  0  0  0  0  0  0  0
   -1.3742   22.1268   10.6083 H   0  0  0  0  0  0  0  0  0  0  0  0
   -1.2434   22.9254   12.9699 H   0  0  0  0  0  0  0  0  0  0  0  0
    0.2221   23.3603   12.0266 H   0  0  0  0  0  0  0  0  0  0  0  0
   -2.1477   25.1942   12.6804 H   0  0  0  0  0  0  0  0  0  0  0  0
   -0.4976   25.2825   13.3847 H   0  0  0  0  0  0  0  0  0  0  0  0
    0.4575   25.8452   11.2064 H   0  0  0  0  0  0  0  0  0  0  0  0
   -0.8891   26.9759   11.5737 H   0  0  0  0  0  0  0  0  0  0  0  0
    5.2489   25.2365    5.0459 H   0  0  0  0  0  0  0  0  0  0  0  0
    3.9391   25.3347    9.1478 H   0  0  0  0  0  0  0  0  0  0  0  0
    2.7061   27.4407    8.6982 H   0  0  0  0  0  0  0  0  0  0  0  0
    1.6818   31.0231    6.0644 H   0  0  0  0  0  0  0  0  0  0  0  0
    4.7300   27.6448    5.2450 H   0  0  0  0  0  0  0  0  0  0  0  0
    3.2866   26.6910    4.7617 H   0  0  0  0  0  0  0  0  0  0  0  0
    3.2118   21.2476    7.8385 H   0  0  0  0  0  0  0  0  0  0  0  0
    3.2563   22.3563    6.4260 H   0  0  0  0  0  0  0  0  0  0  0  0
    4.6336   21.2471    6.7409 H   0  0  0  0  0  0  0  0  0  0  0  0
    3.5112   22.1534    9.7192 H   0  0  0  0  0  0  0  0  0  0  0  0
    5.1537   22.8206   10.0079 H   0  0  0  0  0  0  0  0  0  0  0  0
    3.7763   23.9297    9.6929 H   0  0  0  0  0  0  0  0  0  0  0  0
  1 14  2  0  0  0  0
  1 21  1  0  0  0  0
  1 22  1  0  0  0  0
  2 18  2  0  0  0  0
  2 19  1  0  0  0  0
  3  4  1  0  0  0  0
  3 16  1  0  0  0  0
  4  5  1  0  0  0  0
  4  9  1  0  0  0  0
  5  6  1  0  0  0  0
  6  7  1  0  0  0  0
  7  8  1  0  0  0  0
  8  9  1  0  0  0  0
 10 11  2  0  0  0  0
 10 24  1  0  0  0  0
 11 12  1  0  0  0  0
 11 25  1  0  0  0  0
 12 13  2  0  0  0  0
 13 23  1  0  0  0  0
 14 15  1  0  0  0  0
 15 16  1  0  0  0  0
 15 17  2  0  0  0  0
 17 18  1  0  0  0  0
 17 20  1  0  0  0  0
 19 20  2  0  0  0  0
 20 21  1  0  0  0  0
 22 23  2  3  0  0  0
 23 24  1  0  0  0  0
 25 26  2  0  0  0  0
 25 27  2  0  0  0  0
 25 28  1  0  0  0  0
 28 29  1  0  0  0  0
 28 30  1  0  0  0  0
  2 31  1  0  0  0  0
  3 32  1  0  0  0  0
  3 33  1  0  0  0  0
  4 34  1  0  0  0  0
  5 35  1  0  0  0  0
  5 36  1  0  0  0  0
  6 37  1  0  0  0  0
  6 38  1  0  0  0  0
  7 39  1  0  0  0  0
  7 40  1  0  0  0  0
  8 41  1  0  0  0  0
  8 42  1  0  0  0  0
  9 43  1  0  0  0  0
  9 44  1  0  0  0  0
 10 45  1  0  0  0  0
 12 46  1  0  0  0  0
 13 47  1  0  0  0  0
 21 48  1  0  0  0  0
 24 49  1  0  0  0  0
 24 50  1  0  0  0  0
 29 51  1  0  0  0  0
 29 52  1  0  0  0  0
 29 53  1  0  0  0  0
 30 54  1  0  0  0  0
 30 55  1  0  0  0  0
 30 56  1  0  0  0  0
M  END
> <r_user_dG.exp>
-9.882

$$$$
29
  -OEChem-05162309453D
 Structure written by MMmdl.
 56 59  0     0  0  0  0  0  0999 V2000
    1.3901   29.1077    6.7935 C   0  0  0  0  0  0  0  0  0  0  0  0
   -1.6911   31.9130    8.0794 C   0  0  0  0  0  0  0  0  0  0  0  0
   -0.7437   26.3748    8.8319 C   0  0  0  0  0  0  0  0  0  0  0  0
   -1.3142   25.5567    9.9914 C   0  0  0  0  0  0  0  0  0  0  0  0
   -1.1214   24.0589    9.6854 C   0  0  0  0  0  0  0  0  0  0  0  0
   -1.5824   23.1795   10.8502 C   0  0  0  0  0  0  0  0  0  0  0  0
   -0.8551   23.5463   12.1491 C   0  0  0  0  0  0  0  0  0  0  0  0
   -1.0780   25.0277   12.4857 C   0  0  0  0  0  0  0  0  0  0  0  0
   -0.6321   25.9351   11.3273 C   0  0  0  0  0  0  0  0  0  0  0  0
    4.6903   25.7129    5.8380 C   0  0  0  0  0  0  0  0  0  0  0  0
    4.6667   25.1395    7.1233 C   0  0  0  0  0  0  0  0  0  0  0  0
    3.9496   25.7658    8.1576 C   0  0  0  0  0  0  0  0  0  0  0  0
    3.2460   26.9556    7.8985 C   0  0  0  0  0  0  0  0  0  0  0  0
    0.6302   28.2313    7.4508 N   0  0  0  0  0  0  0  0  0  0  0  0
   -0.4898   28.6252    8.0923 C   0  0  0  0  0  0  0  0  0  0  0  0
   -1.1796   27.7315    8.8832 O   0  0  0  0  0  0  0  0  0  0  0  0
   -0.8660   29.9818    8.0000 C   0  0  0  0  0  0  0  0  0  0  0  0
   -1.9251   30.7129    8.5212 N   0  0  0  0  0  0  0  0  0  0  0  0
   -0.5542   32.0464    7.3306 N   0  0  0  0  0  0  0  0  0  0  0  0
   -0.0249   30.7863    7.2610 C   0  0  0  0  0  0  0  0  0  0  0  0
    1.1172   30.4049    6.6113 N   0  0  0  0  0  0  0  0  0  0  0  0
    2.5827   28.6807    6.3360 N   0  0  0  0  0  0  0  0  0  0  0  0
    3.2365   27.5251    6.6032 C   0  0  0  0  0  0  0  0  0  0  0  0
    3.9871   26.9068    5.5819 C   0  0  0  0  0  0  0  0  0  0  0  0
    5.4311   23.8790    7.4001 S   0  0  0  0  0  0  0  0  0  0  0  0
    5.8108   23.2938    6.1199 O   0  0  0  0  0  0  0  0  0  0  0  0
    6.4234   24.1721    8.4274 O   0  0  0  0  0  0  0  0  0  0  0  0
    4.4921   22.8906    8.0257 N   0  0  0  0  0  0  0  0  0  0  0  0
    3.8604   21.8742    7.2087 C   0  0  0  0  0  0  0  0  0  0  0  0
    4.2167   22.9522    9.4469 C   0  0  0  0  0  0  0  0  0  0  0  0
   -2.3473   32.7449    8.2886 H   0  0  0  0  0  0  0  0  0  0  0  0
    0.3548   26.3504    8.8841 H   0  0  0  0  0  0  0  0  0  0  0  0
   -1.0756   25.9287    7.8828 H   0  0  0  0  0  0  0  0  0  0  0  0
   -2.3913   25.7635   10.0760 H   0  0  0  0  0  0  0  0  0  0  0  0
   -1.7056   23.7998    8.7901 H   0  0  0  0  0  0  0  0  0  0  0  0
   -0.0549   23.8683    9.4951 H   0  0  0  0  0  0  0  0  0  0  0  0
   -2.6643   23.3154   10.9950 H   0  0  0  0  0  0  0  0  0  0  0  0
   -1.3742   22.1268   10.6083 H   0  0  0  0  0  0  0  0  0  0  0  0
   -1.2434   22.9254   12.9699 H   0  0  0  0  0  0  0  0  0  0  0  0
    0.2221   23.3603   12.0266 H   0  0  0  0  0  0  0  0  0  0  0  0
   -2.1477   25.1942   12.6804 H   0  0  0  0  0  0  0  0  0  0  0  0
   -0.4976   25.2825   13.3847 H   0  0  0  0  0  0  0  0  0  0  0  0
    0.4575   25.8452   11.2064 H   0  0  0  0  0  0  0  0  0  0  0  0
   -0.8891   26.9759   11.5737 H   0  0  0  0  0  0  0  0  0  0  0  0
    5.2489   25.2365    5.0459 H   0  0  0  0  0  0  0  0  0  0  0  0
    3.9391   25.3347    9.1478 H   0  0  0  0  0  0  0  0  0  0  0  0
    2.7061   27.4407    8.6982 H   0  0  0  0  0  0  0  0  0  0  0  0
    0.8943   27.2670    7.4687 H   0  0  0  0  0  0  0  0  0  0  0  0
    4.7300   27.6448    5.2450 H   0  0  0  0  0  0  0  0  0  0  0  0
    3.2866   26.6910    4.7617 H   0  0  0  0  0  0  0  0  0  0  0  0
    3.2118   21.2476    7.8385 H   0  0  0  0  0  0  0  0  0  0  0  0
    3.2563   22.3563    6.4260 H   0  0  0  0  0  0  0  0  0  0  0  0
    4.6336   21.2471    6.7409 H   0  0  0  0  0  0  0  0  0  0  0  0
    3.5112   22.1534    9.7192 H   0  0  0  0  0  0  0  0  0  0  0  0
    5.1537   22.8206   10.0079 H   0  0  0  0  0  0  0  0  0  0  0  0
    3.7763   23.9297    9.6929 H   0  0  0  0  0  0  0  0  0  0  0  0
  1 14  1  0  0  0  0
  1 21  2  0  0  0  0
  1 22  1  0  0  0  0
  2 18  2  0  0  0  0
  2 19  1  0  0  0  0
  3  4  1  0  0  0  0
  3 16  1  0  0  0  0
  4  5  1  0  0  0  0
  4  9  1  0  0  0  0
  5  6  1  0  0  0  0
  6  7  1  0  0  0  0
  7  8  1  0  0  0  0
  8  9  1  0  0  0  0
 10 11  2  0  0  0  0
 10 24  1  0  0  0  0
 11 12  1  0  0  0  0
 11 25  1  0  0  0  0
 12 13  2  0  0  0  0
 13 23  1  0  0  0  0
 14 15  1  0  0  0  0
 15 16  1  0  0  0  0
 15 17  2  0  0  0  0
 17 18  1  0  0  0  0
 17 20  1  0  0  0  0
 19 20  2  0  0  0  0
 20 21  1  0  0  0  0
 22 23  2  3  0  0  0
 23 24  1  0  0  0  0
 25 26  2  0  0  0  0
 25 27  2  0  0  0  0
 25 28  1  0  0  0  0
 28 29  1  0  0  0  0
 28 30  1  0  0  0  0
  2 31  1  0  0  0  0
  3 32  1  0  0  0  0
  3 33  1  0  0  0  0
  4 34  1  0  0  0  0
  5 35  1  0  0  0  0
  5 36  1  0  0  0  0
  6 37  1  0  0  0  0
  6 38  1  0  0  0  0
  7 39  1  0  0  0  0
  7 40  1  0  0  0  0
  8 41  1  0  0  0  0
  8 42  1  0  0  0  0
  9 43  1  0  0  0  0
  9 44  1  0  0  0  0
 10 45  1  0  0  0  0
 12 46  1  0  0  0  0
 13 47  1  0  0  0  0
 14 48  1  0  0  0  0
 24 49  1  0  0  0  0
 24 50  1  0  0  0  0
 29 51  1  0  0  0  0
 29 52  1  0  0  0  0
 29 53  1  0  0  0  0
 30 54  1  0  0  0  0
 30 55  1  0  0  0  0
 30 56  1  0  0  0  0
M  END
> <r_user_dG.exp>
-9.882

$$$$
29
  -OEChem-05162309453D
 Structure written by MMmdl.
 56 59  0     1  0  0  0  0  0999 V2000
    1.3901   29.1077    6.7935 C   0  0  0  0  0  0  0  0  0  0  0  0
   -1.6911   31.9130    8.0794 C   0  0  0  0  0  0  0  0  0  0  0  0
   -0.7437   26.3748    8.8319 C   0  0  0  0  0  0  0  0  0  0  0  0
   -1.3142   25.5567    9.9914 C   0  0  0  0  0  0  0  0  0  0  0  0
   -1.1214   24.0589    9.6854 C   0  0  0  0  0  0  0  0  0  0  0  0
   -1.5824   23.1795   10.8502 C   0  0  0  0  0  0  0  0  0  0  0  0
   -0.8551   23.5463   12.1491 C   0  0  0  0  0  0  0  0  0  0  0  0
   -1.0780   25.0277   12.4857 C   0  0  0  0  0  0  0  0  0  0  0  0
   -0.6321   25.9351   11.3273 C   0  0  0  0  0  0  0  0  0  0  0  0
    4.6903   25.7129    5.8380 C   0  0  0  0  0  0  0  0  0  0  0  0
    4.6667   25.1395    7.1233 C   0  0  0  0  0  0  0  0  0  0  0  0
    3.9496   25.7658    8.1576 C   0  0  0  0  0  0  0  0  0  0  0  0
    3.2460   26.9556    7.8985 C   0  0  0  0  0  0  0  0  0  0  0  0
    0.6302   28.2313    7.4508 N   0  0  0  0  0  0  0  0  0  0  0  0
   -0.4898   28.6252    8.0923 C   0  0  0  0  0  0  0  0  0  0  0  0
   -1.1796   27.7315    8.8832 O   0  0  0  0  0  0  0  0  0  0  0  0
   -0.8660   29.9818    8.0000 C   0  0  3  0  0  0  0  0  0  0  0  0
   -1.9251   30.7129    8.5212 N   0  0  0  0  0  0  0  0  0  0  0  0
   -0.5542   32.0464    7.3306 N   0  0  0  0  0  0  0  0  0  0  0  0
   -0.0249   30.7863    7.2610 C   0  0  0  0  0  0  0  0  0  0  0  0
    1.1172   30.4049    6.6113 N   0  0  0  0  0  0  0  0  0  0  0  0
    2.5827   28.6807    6.3360 N   0  0  0  0  0  0  0  0  0  0  0  0
    3.2365   27.5251    6.6032 C   0  0  0  0  0  0  0  0  0  0  0  0
    3.9871   26.9068    5.5819 C   0  0  0  0  0  0  0  0  0  0  0  0
    5.4311   23.8790    7.4001 S   0  0  0  0  0  0  0  0  0  0  0  0
    5.8108   23.2938    6.1199 O   0  0  0  0  0  0  0  0  0  0  0  0
    6.4234   24.1721    8.4274 O   0  0  0  0  0  0  0  0  0  0  0  0
    4.4921   22.8906    8.0257 N   0  0  0  0  0  0  0  0  0  0  0  0
    3.8604   21.8742    7.2087 C   0  0  0  0  0  0  0  0  0  0  0  0
    4.2167   22.9522    9.4469 C   0  0  0  0  0  0  0  0  0  0  0  0
   -2.3473   32.7449    8.2886 H   0  0  0  0  0  0  0  0  0  0  0  0
    0.3548   26.3504    8.8841 H   0  0  0  0  0  0  0  0  0  0  0  0
   -1.0756   25.9287    7.8828 H   0  0  0  0  0  0  0  0  0  0  0  0
   -2.3913   25.7635   10.0760 H   0  0  0  0  0  0  0  0  0  0  0  0
   -1.7056   23.7998    8.7901 H   0  0  0  0  0  0  0  0  0  0  0  0
   -0.0549   23.8683    9.4951 H   0  0  0  0  0  0  0  0  0  0  0  0
   -2.6643   23.3154   10.9950 H   0  0  0  0  0  0  0  0  0  0  0  0
   -1.3742   22.1268   10.6083 H   0  0  0  0  0  0  0  0  0  0  0  0
   -1.2434   22.9254   12.9699 H   0  0  0  0  0  0  0  0  0  0  0  0
    0.2221   23.3603   12.0266 H   0  0  0  0  0  0  0  0  0  0  0  0
   -2.1477   25.1942   12.6804 H   0  0  0  0  0  0  0  0  0  0  0  0
   -0.4976   25.2825   13.3847 H   0  0  0  0  0  0  0  0  0  0  0  0
    0.4575   25.8452   11.2064 H   0  0  0  0  0  0  0  0  0  0  0  0
   -0.8891   26.9759   11.5737 H   0  0  0  0  0  0  0  0  0  0  0  0
    5.2489   25.2365    5.0459 H   0  0  0  0  0  0  0  0  0  0  0  0
    3.9391   25.3347    9.1478 H   0  0  0  0  0  0  0  0  0  0  0  0
    2.7061   27.4407    8.6982 H   0  0  0  0  0  0  0  0  0  0  0  0
   -1.4557   29.7617    7.0979 H   0  0  0  0  0  0  0  0  0  0  0  0
    3.0515   29.3048    5.7110 H   0  0  0  0  0  0  0  0  0  0  0  0
    4.0232   27.3508    4.5981 H   0  0  0  0  0  0  0  0  0  0  0  0
    3.2118   21.2476    7.8385 H   0  0  0  0  0  0  0  0  0  0  0  0
    3.2563   22.3563    6.4260 H   0  0  0  0  0  0  0  0  0  0  0  0
    4.6336   21.2471    6.7409 H   0  0  0  0  0  0  0  0  0  0  0  0
    3.5112   22.1534    9.7192 H   0  0  0  0  0  0  0  0  0  0  0  0
    5.1537   22.8206   10.0079 H   0  0  0  0  0  0  0  0  0  0  0  0
    3.7763   23.9297    9.6929 H   0  0  0  0  0  0  0  0  0  0  0  0
  1 14  1  0  0  0  0
  1 21  2  0  0  0  0
  1 22  1  0  0  0  0
  2 18  2  0  0  0  0
  2 19  1  0  0  0  0
  3  4  1  0  0  0  0
  3 16  1  0  0  0  0
  4  5  1  0  0  0  0
  4  9  1  0  0  0  0
  5  6  1  0  0  0  0
  6  7  1  0  0  0  0
  7  8  1  0  0  0  0
  8  9  1  0  0  0  0
 10 11  2  0  0  0  0
 10 24  1  0  0  0  0
 11 12  1  0  0  0  0
 11 25  1  0  0  0  0
 12 13  2  0  0  0  0
 13 23  1  0  0  0  0
 14 15  2  0  0  0  0
 15 16  1  0  0  0  0
 15 17  1  0  0  0  0
 17 18  1  0  0  0  0
 17 20  1  0  0  0  0
 19 20  2  0  0  0  0
 20 21  1  0  0  0  0
 22 23  1  0  0  0  0
 23 24  2  0  0  0  0
 25 26  2  0  0  0  0
 25 27  2  0  0  0  0
 25 28  1  0  0  0  0
 28 29  1  0  0  0  0
 28 30  1  0  0  0  0
  2 31  1  0  0  0  0
  3 32  1  0  0  0  0
  3 33  1  0  0  0  0
  4 34  1  0  0  0  0
  5 35  1  0  0  0  0
  5 36  1  0  0  0  0
  6 37  1  0  0  0  0
  6 38  1  0  0  0  0
  7 39  1  0  0  0  0
  7 40  1  0  0  0  0
  8 41  1  0  0  0  0
  8 42  1  0  0  0  0
  9 43  1  0  0  0  0
  9 44  1  0  0  0  0
 10 45  1  0  0  0  0
 12 46  1  0  0  0  0
 13 47  1  0  0  0  0
 17 48  1  0  0  0  0
 22 49  1  0  0  0  0
 24 50  1  0  0  0  0
 29 51  1  0  0  0  0
 29 52  1  0  0  0  0
 29 53  1  0  0  0  0
 30 54  1  0  0  0  0
 30 55  1  0  0  0  0
 30 56  1  0  0  0  0
M  END
> <r_user_dG.exp>
-9.882

$$$$
29
  -OEChem-05162309453D
 Structure written by MMmdl.
 56 59  0     1  0  0  0  0  0999 V2000
    1.3901   29.1077    6.7935 C   0  0  0  0  0  0  0  0  0  0  0  0
   -1.6911   31.9130    8.0794 C   0  0  0  0  0  0  0  0  0  0  0  0
   -0.7437   26.3748    8.8319 C   0  0  0  0  0  0  0  0  0  0  0  0
   -1.3142   25.5567    9.9914 C   0  0  0  0  0  0  0  0  0  0  0  0
   -1.1214   24.0589    9.6854 C   0  0  0  0  0  0  0  0  0  0  0  0
   -1.5824   23.1795   10.8502 C   0  0  0  0  0  0  0  0  0  0  0  0
   -0.8551   23.5463   12.1491 C   0  0  0  0  0  0  0  0  0  0  0  0
   -1.0780   25.0277   12.4857 C   0  0  0  0  0  0  0  0  0  0  0  0
   -0.6321   25.9351   11.3273 C   0  0  0  0  0  0  0  0  0  0  0  0
    4.6903   25.7129    5.8380 C   0  0  0  0  0  0  0  0  0  0  0  0
    4.6667   25.1395    7.1233 C   0  0  0  0  0  0  0  0  0  0  0  0
    3.9496   25.7658    8.1576 C   0  0  0  0  0  0  0  0  0  0  0  0
    3.2460   26.9556    7.8985 C   0  0  0  0  0  0  0  0  0  0  0  0
    0.6302   28.2313    7.4508 N   0  0  0  0  0  0  0  0  0  0  0  0
   -0.4898   28.6252    8.0923 C   0  0  0  0  0  0  0  0  0  0  0  0
   -1.1796   27.7315    8.8832 O   0  0  0  0  0  0  0  0  0  0  0  0
   -0.8660   29.9818    8.0000 C   0  0  3  0  0  0  0  0  0  0  0  0
   -1.9251   30.7129    8.5212 N   0  0  0  0  0  0  0  0  0  0  0  0
   -0.5542   32.0464    7.3306 N   0  0  0  0  0  0  0  0  0  0  0  0
   -0.0249   30.7863    7.2610 C   0  0  0  0  0  0  0  0  0  0  0  0
    1.1172   30.4049    6.6113 N   0  0  0  0  0  0  0  0  0  0  0  0
    2.5827   28.6807    6.3360 N   0  0  0  0  0  0  0  0  0  0  0  0
    3.2365   27.5251    6.6032 C   0  0  0  0  0  0  0  0  0  0  0  0
    3.9871   26.9068    5.5819 C   0  0  0  0  0  0  0  0  0  0  0  0
    5.4311   23.8790    7.4001 S   0  0  0  0  0  0  0  0  0  0  0  0
    5.8108   23.2938    6.1199 O   0  0  0  0  0  0  0  0  0  0  0  0
    6.4234   24.1721    8.4274 O   0  0  0  0  0  0  0  0  0  0  0  0
    4.4921   22.8906    8.0257 N   0  0  0  0  0  0  0  0  0  0  0  0
    3.8604   21.8742    7.2087 C   0  0  0  0  0  0  0  0  0  0  0  0
    4.2167   22.9522    9.4469 C   0  0  0  0  0  0  0  0  0  0  0  0
   -2.3473   32.7449    8.2886 H   0  0  0  0  0  0  0  0  0  0  0  0
    0.3548   26.3504    8.8841 H   0  0  0  0  0  0  0  0  0  0  0  0
   -1.0756   25.9287    7.8828 H   0  0  0  0  0  0  0  0  0  0  0  0
   -2.3913   25.7635   10.0760 H   0  0  0  0  0  0  0  0  0  0  0  0
   -1.7056   23.7998    8.7901 H   0  0  0  0  0  0  0  0  0  0  0  0
   -0.0549   23.8683    9.4951 H   0  0  0  0  0  0  0  0  0  0  0  0
   -2.6643   23.3154   10.9950 H   0  0  0  0  0  0  0  0  0  0  0  0
   -1.3742   22.1268   10.6083 H   0  0  0  0  0  0  0  0  0  0  0  0
   -1.2434   22.9254   12.9699 H   0  0  0  0  0  0  0  0  0  0  0  0
    0.2221   23.3603   12.0266 H   0  0  0  0  0  0  0  0  0  0  0  0
   -2.1477   25.1942   12.6804 H   0  0  0  0  0  0  0  0  0  0  0  0
   -0.4976   25.2825   13.3847 H   0  0  0  0  0  0  0  0  0  0  0  0
    0.4575   25.8452   11.2064 H   0  0  0  0  0  0  0  0  0  0  0  0
   -0.8891   26.9759   11.5737 H   0  0  0  0  0  0  0  0  0  0  0  0
    5.2489   25.2365    5.0459 H   0  0  0  0  0  0  0  0  0  0  0  0
    3.9391   25.3347    9.1478 H   0  0  0  0  0  0  0  0  0  0  0  0
    2.7061   27.4407    8.6982 H   0  0  0  0  0  0  0  0  0  0  0  0
   -1.4557   29.7617    7.0979 H   0  0  0  0  0  0  0  0  0  0  0  0
   -2.6805   30.3952    9.0943 H   0  0  0  0  0  0  0  0  0  0  0  0
    4.0232   27.3508    4.5981 H   0  0  0  0  0  0  0  0  0  0  0  0
    3.2118   21.2476    7.8385 H   0  0  0  0  0  0  0  0  0  0  0  0
    3.2563   22.3563    6.4260 H   0  0  0  0  0  0  0  0  0  0  0  0
    4.6336   21.2471    6.7409 H   0  0  0  0  0  0  0  0  0  0  0  0
    3.5112   22.1534    9.7192 H   0  0  0  0  0  0  0  0  0  0  0  0
    5.1537   22.8206   10.0079 H   0  0  0  0  0  0  0  0  0  0  0  0
    3.7763   23.9297    9.6929 H   0  0  0  0  0  0  0  0  0  0  0  0
  1 14  1  0  0  0  0
  1 21  1  0  0  0  0
  1 22  2  0  0  0  0
  2 18  1  0  0  0  0
  2 19  2  0  0  0  0
  3  4  1  0  0  0  0
  3 16  1  0  0  0  0
  4  5  1  0  0  0  0
  4  9  1  0  0  0  0
  5  6  1  0  0  0  0
  6  7  1  0  0  0  0
  7  8  1  0  0  0  0
  8  9  1  0  0  0  0
 10 11  2  0  0  0  0
 10 24  1  0  0  0  0
 11 12  1  0  0  0  0
 11 25  1  0  0  0  0
 12 13  2  0  0  0  0
 13 23  1  0  0  0  0
 14 15  2  0  0  0  0
 15 16  1  0  0  0  0
 15 17  1  0  0  0  0
 17 18  1  0  0  0  0
 17 20  1  0  0  0  0
 19 20  1  0  0  0  0
 20 21  2  0  0  0  0
 22 23  1  0  0  0  0
 23 24  2  0  0  0  0
 25 26  2  0  0  0  0
 25 27  2  0  0  0  0
 25 28  1  0  0  0  0
 28 29  1  0  0  0  0
 28 30  1  0  0  0  0
  2 31  1  0  0  0  0
  3 32  1  0  0  0  0
  3 33  1  0  0  0  0
  4 34  1  0  0  0  0
  5 35  1  0  0  0  0
  5 36  1  0  0  0  0
  6 37  1  0  0  0  0
  6 38  1  0  0  0  0
  7 39  1  0  0  0  0
  7 40  1  0  0  0  0
  8 41  1  0  0  0  0
  8 42  1  0  0  0  0
  9 43  1  0  0  0  0
  9 44  1  0  0  0  0
 10 45  1  0  0  0  0
 12 46  1  0  0  0  0
 13 47  1  0  0  0  0
 17 48  1  0  0  0  0
 18 49  1  0  0  0  0
 24 50  1  0  0  0  0
 29 51  1  0  0  0  0
 29 52  1  0  0  0  0
 29 53  1  0  0  0  0
 30 54  1  0  0  0  0
 30 55  1  0  0  0  0
 30 56  1  0  0  0  0
M  END
> <r_user_dG.exp>
-9.882

$$$$
29
  -OEChem-05162309453D
 Structure written by MMmdl.
 56 59  0     1  0  0  0  0  0999 V2000
    1.3901   29.1077    6.7935 C   0  0  0  0  0  0  0  0  0  0  0  0
   -1.6911   31.9130    8.0794 C   0  0  0  0  0  0  0  0  0  0  0  0
   -0.7437   26.3748    8.8319 C   0  0  0  0  0  0  0  0  0  0  0  0
   -1.3142   25.5567    9.9914 C   0  0  0  0  0  0  0  0  0  0  0  0
   -1.1214   24.0589    9.6854 C   0  0  0  0  0  0  0  0  0  0  0  0
   -1.5824   23.1795   10.8502 C   0  0  0  0  0  0  0  0  0  0  0  0
   -0.8551   23.5463   12.1491 C   0  0  0  0  0  0  0  0  0  0  0  0
   -1.0780   25.0277   12.4857 C   0  0  0  0  0  0  0  0  0  0  0  0
   -0.6321   25.9351   11.3273 C   0  0  0  0  0  0  0  0  0  0  0  0
    4.6903   25.7129    5.8380 C   0  0  0  0  0  0  0  0  0  0  0  0
    4.6667   25.1395    7.1233 C   0  0  0  0  0  0  0  0  0  0  0  0
    3.9496   25.7658    8.1576 C   0  0  0  0  0  0  0  0  0  0  0  0
    3.2460   26.9556    7.8985 C   0  0  0  0  0  0  0  0  0  0  0  0
    0.6302   28.2313    7.4508 N   0  0  0  0  0  0  0  0  0  0  0  0
   -0.4898   28.6252    8.0923 C   0  0  0  0  0  0  0  0  0  0  0  0
   -1.1796   27.7315    8.8832 O   0  0  0  0  0  0  0  0  0  0  0  0
   -0.8660   29.9818    8.0000 C   0  0  3  0  0  0  0  0  0  0  0  0
   -1.9251   30.7129    8.5212 N   0  0  0  0  0  0  0  0  0  0  0  0
   -0.5542   32.0464    7.3306 N   0  0  0  0  0  0  0  0  0  0  0  0
   -0.0249   30.7863    7.2610 C   0  0  0  0  0  0  0  0  0  0  0  0
    1.1172   30.4049    6.6113 N   0  0  0  0  0  0  0  0  0  0  0  0
    2.5827   28.6807    6.3360 N   0  0  0  0  0  0  0  0  0  0  0  0
    3.2365   27.5251    6.6032 C   0  0  0  0  0  0  0  0  0  0  0  0
    3.9871   26.9068    5.5819 C   0  0  0  0  0  0  0  0  0  0  0  0
    5.4311   23.8790    7.4001 S   0  0  0  0  0  0  0  0  0  0  0  0
    5.8108   23.2938    6.1199 O   0  0  0  0  0  0  0  0  0  0  0  0
    6.4234   24.1721    8.4274 O   0  0  0  0  0  0  0  0  0  0  0  0
    4.4921   22.8906    8.0257 N   0  0  0  0  0  0  0  0  0  0  0  0
    3.8604   21.8742    7.2087 C   0  0  0  0  0  0  0  0  0  0  0  0
    4.2167   22.9522    9.4469 C   0  0  0  0  0  0  0  0  0  0  0  0
   -2.3473   32.7449    8.2886 H   0  0  0  0  0  0  0  0  0  0  0  0
    0.3548   26.3504    8.8841 H   0  0  0  0  0  0  0  0  0  0  0  0
   -1.0756   25.9287    7.8828 H   0  0  0  0  0  0  0  0  0  0  0  0
   -2.3913   25.7635   10.0760 H   0  0  0  0  0  0  0  0  0  0  0  0
   -1.7056   23.7998    8.7901 H   0  0  0  0  0  0  0  0  0  0  0  0
   -0.0549   23.8683    9.4951 H   0  0  0  0  0  0  0  0  0  0  0  0
   -2.6643   23.3154   10.9950 H   0  0  0  0  0  0  0  0  0  0  0  0
   -1.3742   22.1268   10.6083 H   0  0  0  0  0  0  0  0  0  0  0  0
   -1.2434   22.9254   12.9699 H   0  0  0  0  0  0  0  0  0  0  0  0
    0.2221   23.3603   12.0266 H   0  0  0  0  0  0  0  0  0  0  0  0
   -2.1477   25.1942   12.6804 H   0  0  0  0  0  0  0  0  0  0  0  0
   -0.4976   25.2825   13.3847 H   0  0  0  0  0  0  0  0  0  0  0  0
    0.4575   25.8452   11.2064 H   0  0  0  0  0  0  0  0  0  0  0  0
   -0.8891   26.9759   11.5737 H   0  0  0  0  0  0  0  0  0  0  0  0
    5.2489   25.2365    5.0459 H   0  0  0  0  0  0  0  0  0  0  0  0
    3.9391   25.3347    9.1478 H   0  0  0  0  0  0  0  0  0  0  0  0
    2.7061   27.4407    8.6982 H   0  0  0  0  0  0  0  0  0  0  0  0
   -1.4557   29.7617    7.0979 H   0  0  0  0  0  0  0  0  0  0  0  0
    1.6818   31.0231    6.0644 H   0  0  0  0  0  0  0  0  0  0  0  0
    4.0232   27.3508    4.5981 H   0  0  0  0  0  0  0  0  0  0  0  0
    3.2118   21.2476    7.8385 H   0  0  0  0  0  0  0  0  0  0  0  0
    3.2563   22.3563    6.4260 H   0  0  0  0  0  0  0  0  0  0  0  0
    4.6336   21.2471    6.7409 H   0  0  0  0  0  0  0  0  0  0  0  0
    3.5112   22.1534    9.7192 H   0  0  0  0  0  0  0  0  0  0  0  0
    5.1537   22.8206   10.0079 H   0  0  0  0  0  0  0  0  0  0  0  0
    3.7763   23.9297    9.6929 H   0  0  0  0  0  0  0  0  0  0  0  0
  1 14  1  0  0  0  0
  1 21  1  0  0  0  0
  1 22  2  0  0  0  0
  2 18  2  0  0  0  0
  2 19  1  0  0  0  0
  3  4  1  0  0  0  0
  3 16  1  0  0  0  0
  4  5  1  0  0  0  0
  4  9  1  0  0  0  0
  5  6  1  0  0  0  0
  6  7  1  0  0  0  0
  7  8  1  0  0  0  0
  8  9  1  0  0  0  0
 10 11  2  0  0  0  0
 10 24  1  0  0  0  0
 11 12  1  0  0  0  0
 11 25  1  0  0  0  0
 12 13  2  0  0  0  0
 13 23  1  0  0  0  0
 14 15  2  0  0  0  0
 15 16  1  0  0  0  0
 15 17  1  0  0  0  0
 17 18  1  0  0  0  0
 17 20  1  0  0  0  0
 19 20  2  0  0  0  0
 20 21  1  0  0  0  0
 22 23  1  0  0  0  0
 23 24  2  0  0  0  0
 25 26  2  0  0  0  0
 25 27  2  0  0  0  0
 25 28  1  0  0  0  0
 28 29  1  0  0  0  0
 28 30  1  0  0  0  0
  2 31  1  0  0  0  0
  3 32  1  0  0  0  0
  3 33  1  0  0  0  0
  4 34  1  0  0  0  0
  5 35  1  0  0  0  0
  5 36  1  0  0  0  0
  6 37  1  0  0  0  0
  6 38  1  0  0  0  0
  7 39  1  0  0  0  0
  7 40  1  0  0  0  0
  8 41  1  0  0  0  0
  8 42  1  0  0  0  0
  9 43  1  0  0  0  0
  9 44  1  0  0  0  0
 10 45  1  0  0  0  0
 12 46  1  0  0  0  0
 13 47  1  0  0  0  0
 17 48  1  0  0  0  0
 21 49  1  0  0  0  0
 24 50  1  0  0  0  0
 29 51  1  0  0  0  0
 29 52  1  0  0  0  0
 29 53  1  0  0  0  0
 30 54  1  0  0  0  0
 30 55  1  0  0  0  0
 30 56  1  0  0  0  0
M  END
> <r_user_dG.exp>
-9.882

$$$$
29
  -OEChem-05162309453D
 Structure written by MMmdl.
 56 59  0     1  0  0  0  0  0999 V2000
    1.3901   29.1077    6.7935 C   0  0  0  0  0  0  0  0  0  0  0  0
   -1.6911   31.9130    8.0794 C   0  0  0  0  0  0  0  0  0  0  0  0
   -0.7437   26.3748    8.8319 C   0  0  0  0  0  0  0  0  0  0  0  0
   -1.3142   25.5567    9.9914 C   0  0  0  0  0  0  0  0  0  0  0  0
   -1.1214   24.0589    9.6854 C   0  0  0  0  0  0  0  0  0  0  0  0
   -1.5824   23.1795   10.8502 C   0  0  0  0  0  0  0  0  0  0  0  0
   -0.8551   23.5463   12.1491 C   0  0  0  0  0  0  0  0  0  0  0  0
   -1.0780   25.0277   12.4857 C   0  0  0  0  0  0  0  0  0  0  0  0
   -0.6321   25.9351   11.3273 C   0  0  0  0  0  0  0  0  0  0  0  0
    4.6903   25.7129    5.8380 C   0  0  0  0  0  0  0  0  0  0  0  0
    4.6667   25.1395    7.1233 C   0  0  0  0  0  0  0  0  0  0  0  0
    3.9496   25.7658    8.1576 C   0  0  0  0  0  0  0  0  0  0  0  0
    3.2460   26.9556    7.8985 C   0  0  0  0  0  0  0  0  0  0  0  0
    0.6302   28.2313    7.4508 N   0  0  0  0  0  0  0  0  0  0  0  0
   -0.4898   28.6252    8.0923 C   0  0  0  0  0  0  0  0  0  0  0  0
   -1.1796   27.7315    8.8832 O   0  0  0  0  0  0  0  0  0  0  0  0
   -0.8660   29.9818    8.0000 C   0  0  3  0  0  0  0  0  0  0  0  0
   -1.9251   30.7129    8.5212 N   0  0  0  0  0  0  0  0  0  0  0  0
   -0.5542   32.0464    7.3306 N   0  0  0  0  0  0  0  0  0  0  0  0
   -0.0249   30.7863    7.2610 C   0  0  0  0  0  0  0  0  0  0  0  0
    1.1172   30.4049    6.6113 N   0  0  0  0  0  0  0  0  0  0  0  0
    2.5827   28.6807    6.3360 N   0  0  0  0  0  0  0  0  0  0  0  0
    3.2365   27.5251    6.6032 C   0  0  0  0  0  0  0  0  0  0  0  0
    3.9871   26.9068    5.5819 C   0  0  0  0  0  0  0  0  0  0  0  0
    5.4311   23.8790    7.4001 S   0  0  0  0  0  0  0  0  0  0  0  0
    5.8108   23.2938    6.1199 O   0  0  0  0  0  0  0  0  0  0  0  0
    6.4234   24.1721    8.4274 O   0  0  0  0  0  0  0  0  0  0  0  0
    4.4921   22.8906    8.0257 N   0  0  0  0  0  0  0  0  0  0  0  0
    3.8604   21.8742    7.2087 C   0  0  0  0  0  0  0  0  0  0  0  0
    4.2167   22.9522    9.4469 C   0  0  0  0  0  0  0  0  0  0  0  0
   -2.3473   32.7449    8.2886 H   0  0  0  0  0  0  0  0  0  0  0  0
    0.3548   26.3504    8.8841 H   0  0  0  0  0  0  0  0  0  0  0  0
   -1.0756   25.9287    7.8828 H   0  0  0  0  0  0  0  0  0  0  0  0
   -2.3913   25.7635   10.0760 H   0  0  0  0  0  0  0  0  0  0  0  0
   -1.7056   23.7998    8.7901 H   0  0  0  0  0  0  0  0  0  0  0  0
   -0.0549   23.8683    9.4951 H   0  0  0  0  0  0  0  0  0  0  0  0
   -2.6643   23.3154   10.9950 H   0  0  0  0  0  0  0  0  0  0  0  0
   -1.3742   22.1268   10.6083 H   0  0  0  0  0  0  0  0  0  0  0  0
   -1.2434   22.9254   12.9699 H   0  0  0  0  0  0  0  0  0  0  0  0
    0.2221   23.3603   12.0266 H   0  0  0  0  0  0  0  0  0  0  0  0
   -2.1477   25.1942   12.6804 H   0  0  0  0  0  0  0  0  0  0  0  0
   -0.4976   25.2825   13.3847 H   0  0  0  0  0  0  0  0  0  0  0  0
    0.4575   25.8452   11.2064 H   0  0  0  0  0  0  0  0  0  0  0  0
   -0.8891   26.9759   11.5737 H   0  0  0  0  0  0  0  0  0  0  0  0
    5.2489   25.2365    5.0459 H   0  0  0  0  0  0  0  0  0  0  0  0
    3.9391   25.3347    9.1478 H   0  0  0  0  0  0  0  0  0  0  0  0
    2.7061   27.4407    8.6982 H   0  0  0  0  0  0  0  0  0  0  0  0
   -1.4557   29.7617    7.0979 H   0  0  0  0  0  0  0  0  0  0  0  0
   -0.1890   32.8832    6.9226 H   0  0  0  0  0  0  0  0  0  0  0  0
    4.0232   27.3508    4.5981 H   0  0  0  0  0  0  0  0  0  0  0  0
    3.2118   21.2476    7.8385 H   0  0  0  0  0  0  0  0  0  0  0  0
    3.2563   22.3563    6.4260 H   0  0  0  0  0  0  0  0  0  0  0  0
    4.6336   21.2471    6.7409 H   0  0  0  0  0  0  0  0  0  0  0  0
    3.5112   22.1534    9.7192 H   0  0  0  0  0  0  0  0  0  0  0  0
    5.1537   22.8206   10.0079 H   0  0  0  0  0  0  0  0  0  0  0  0
    3.7763   23.9297    9.6929 H   0  0  0  0  0  0  0  0  0  0  0  0
  1 14  1  0  0  0  0
  1 21  1  0  0  0  0
  1 22  2  0  0  0  0
  2 18  2  0  0  0  0
  2 19  1  0  0  0  0
  3  4  1  0  0  0  0
  3 16  1  0  0  0  0
  4  5  1  0  0  0  0
  4  9  1  0  0  0  0
  5  6  1  0  0  0  0
  6  7  1  0  0  0  0
  7  8  1  0  0  0  0
  8  9  1  0  0  0  0
 10 11  2  0  0  0  0
 10 24  1  0  0  0  0
 11 12  1  0  0  0  0
 11 25  1  0  0  0  0
 12 13  2  0  0  0  0
 13 23  1  0  0  0  0
 14 15  2  0  0  0  0
 15 16  1  0  0  0  0
 15 17  1  0  0  0  0
 17 18  1  0  0  0  0
 17 20  1  0  0  0  0
 19 20  1  0  0  0  0
 20 21  2  0  0  0  0
 22 23  1  0  0  0  0
 23 24  2  0  0  0  0
 25 26  2  0  0  0  0
 25 27  2  0  0  0  0
 25 28  1  0  0  0  0
 28 29  1  0  0  0  0
 28 30  1  0  0  0  0
  2 31  1  0  0  0  0
  3 32  1  0  0  0  0
  3 33  1  0  0  0  0
  4 34  1  0  0  0  0
  5 35  1  0  0  0  0
  5 36  1  0  0  0  0
  6 37  1  0  0  0  0
  6 38  1  0  0  0  0
  7 39  1  0  0  0  0
  7 40  1  0  0  0  0
  8 41  1  0  0  0  0
  8 42  1  0  0  0  0
  9 43  1  0  0  0  0
  9 44  1  0  0  0  0
 10 45  1  0  0  0  0
 12 46  1  0  0  0  0
 13 47  1  0  0  0  0
 17 48  1  0  0  0  0
 19 49  1  0  0  0  0
 24 50  1  0  0  0  0
 29 51  1  0  0  0  0
 29 52  1  0  0  0  0
 29 53  1  0  0  0  0
 30 54  1  0  0  0  0
 30 55  1  0  0  0  0
 30 56  1  0  0  0  0
M  END
> <r_user_dG.exp>
-9.882

$$$$
29
  -OEChem-05162309453D
 Structure written by MMmdl.
 56 59  0     1  0  0  0  0  0999 V2000
    1.3901   29.1077    6.7935 C   0  0  0  0  0  0  0  0  0  0  0  0
   -1.6911   31.9130    8.0794 C   0  0  0  0  0  0  0  0  0  0  0  0
   -0.7437   26.3748    8.8319 C   0  0  0  0  0  0  0  0  0  0  0  0
   -1.3142   25.5567    9.9914 C   0  0  0  0  0  0  0  0  0  0  0  0
   -1.1214   24.0589    9.6854 C   0  0  0  0  0  0  0  0  0  0  0  0
   -1.5824   23.1795   10.8502 C   0  0  0  0  0  0  0  0  0  0  0  0
   -0.8551   23.5463   12.1491 C   0  0  0  0  0  0  0  0  0  0  0  0
   -1.0780   25.0277   12.4857 C   0  0  0  0  0  0  0  0  0  0  0  0
   -0.6321   25.9351   11.3273 C   0  0  0  0  0  0  0  0  0  0  0  0
    4.6903   25.7129    5.8380 C   0  0  0  0  0  0  0  0  0  0  0  0
    4.6667   25.1395    7.1233 C   0  0  0  0  0  0  0  0  0  0  0  0
    3.9496   25.7658    8.1576 C   0  0  0  0  0  0  0  0  0  0  0  0
    3.2460   26.9556    7.8985 C   0  0  0  0  0  0  0  0  0  0  0  0
    0.6302   28.2313    7.4508 N   0  0  0  0  0  0  0  0  0  0  0  0
   -0.4898   28.6252    8.0923 C   0  0  0  0  0  0  0  0  0  0  0  0
   -1.1796   27.7315    8.8832 O   0  0  0  0  0  0  0  0  0  0  0  0
   -0.8660   29.9818    8.0000 C   0  0  0  0  0  0  0  0  0  0  0  0
   -1.9251   30.7129    8.5212 N   0  0  0  0  0  0  0  0  0  0  0  0
   -0.5542   32.0464    7.3306 N   0  0  0  0  0  0  0  0  0  0  0  0
   -0.0249   30.7863    7.2610 C   0  0  3  0  0  0  0  0  0  0  0  0
    1.1172   30.4049    6.6113 N   0  0  0  0  0  0  0  0  0  0  0  0
    2.5827   28.6807    6.3360 N   0  0  0  0  0  0  0  0  0  0  0  0
    3.2365   27.5251    6.6032 C   0  0  0  0  0  0  0  0  0  0  0  0
    3.9871   26.9068    5.5819 C   0  0  0  0  0  0  0  0  0  0  0  0
    5.4311   23.8790    7.4001 S   0  0  0  0  0  0  0  0  0  0  0  0
    5.8108   23.2938    6.1199 O   0  0  0  0  0  0  0  0  0  0  0  0
    6.4234   24.1721    8.4274 O   0  0  0  0  0  0  0  0  0  0  0  0
    4.4921   22.8906    8.0257 N   0  0  0  0  0  0  0  0  0  0  0  0
    3.8604   21.8742    7.2087 C   0  0  0  0  0  0  0  0  0  0  0  0
    4.2167   22.9522    9.4469 C   0  0  0  0  0  0  0  0  0  0  0  0
   -2.3473   32.7449    8.2886 H   0  0  0  0  0  0  0  0  0  0  0  0
    0.3548   26.3504    8.8841 H   0  0  0  0  0  0  0  0  0  0  0  0
   -1.0756   25.9287    7.8828 H   0  0  0  0  0  0  0  0  0  0  0  0
   -2.3913   25.7635   10.0760 H   0  0  0  0  0  0  0  0  0  0  0  0
   -1.7056   23.7998    8.7901 H   0  0  0  0  0  0  0  0  0  0  0  0
   -0.0549   23.8683    9.4951 H   0  0  0  0  0  0  0  0  0  0  0  0
   -2.6643   23.3154   10.9950 H   0  0  0  0  0  0  0  0  0  0  0  0
   -1.3742   22.1268   10.6083 H   0  0  0  0  0  0  0  0  0  0  0  0
   -1.2434   22.9254   12.9699 H   0  0  0  0  0  0  0  0  0  0  0  0
    0.2221   23.3603   12.0266 H   0  0  0  0  0  0  0  0  0  0  0  0
   -2.1477   25.1942   12.6804 H   0  0  0  0  0  0  0  0  0  0  0  0
   -0.4976   25.2825   13.3847 H   0  0  0  0  0  0  0  0  0  0  0  0
    0.4575   25.8452   11.2064 H   0  0  0  0  0  0  0  0  0  0  0  0
   -0.8891   26.9759   11.5737 H   0  0  0  0  0  0  0  0  0  0  0  0
    5.2489   25.2365    5.0459 H   0  0  0  0  0  0  0  0  0  0  0  0
    3.9391   25.3347    9.1478 H   0  0  0  0  0  0  0  0  0  0  0  0
    2.7061   27.4407    8.6982 H   0  0  0  0  0  0  0  0  0  0  0  0
   -0.6153   30.5819    6.3556 H   0  0  0  0  0  0  0  0  0  0  0  0
    3.0515   29.3048    5.7110 H   0  0  0  0  0  0  0  0  0  0  0  0
    4.0232   27.3508    4.5981 H   0  0  0  0  0  0  0  0  0  0  0  0
    3.2118   21.2476    7.8385 H   0  0  0  0  0  0  0  0  0  0  0  0
    3.2563   22.3563    6.4260 H   0  0  0  0  0  0  0  0  0  0  0  0
    4.6336   21.2471    6.7409 H   0  0  0  0  0  0  0  0  0  0  0  0
    3.5112   22.1534    9.7192 H   0  0  0  0  0  0  0  0  0  0  0  0
    5.1537   22.8206   10.0079 H   0  0  0  0  0  0  0  0  0  0  0  0
    3.7763   23.9297    9.6929 H   0  0  0  0  0  0  0  0  0  0  0  0
  1 14  1  0  0  0  0
  1 21  2  0  0  0  0
  1 22  1  0  0  0  0
  2 18  1  0  0  0  0
  2 19  2  0  0  0  0
  3  4  1  0  0  0  0
  3 16  1  0  0  0  0
  4  5  1  0  0  0  0
  4  9  1  0  0  0  0
  5  6  1  0  0  0  0
  6  7  1  0  0  0  0
  7  8  1  0  0  0  0
  8  9  1  0  0  0  0
 10 11  2  0  0  0  0
 10 24  1  0  0  0  0
 11 12  1  0  0  0  0
 11 25  1  0  0  0  0
 12 13  2  0  0  0  0
 13 23  1  0  0  0  0
 14 15  2  0  0  0  0
 15 16  1  0  0  0  0
 15 17  1  0  0  0  0
 17 18  2  0  0  0  0
 17 20  1  0  0  0  0
 19 20  1  0  0  0  0
 20 21  1  0  0  0  0
 22 23  1  0  0  0  0
 23 24  2  0  0  0  0
 25 26  2  0  0  0  0
 25 27  2  0  0  0  0
 25 28  1  0  0  0  0
 28 29  1  0  0  0  0
 28 30  1  0  0  0  0
  2 31  1  0  0  0  0
  3 32  1  0  0  0  0
  3 33  1  0  0  0  0
  4 34  1  0  0  0  0
  5 35  1  0  0  0  0
  5 36  1  0  0  0  0
  6 37  1  0  0  0  0
  6 38  1  0  0  0  0
  7 39  1  0  0  0  0
  7 40  1  0  0  0  0
  8 41  1  0  0  0  0
  8 42  1  0  0  0  0
  9 43  1  0  0  0  0
  9 44  1  0  0  0  0
 10 45  1  0  0  0  0
 12 46  1  0  0  0  0
 13 47  1  0  0  0  0
 20 48  1  0  0  0  0
 22 49  1  0  0  0  0
 24 50  1  0  0  0  0
 29 51  1  0  0  0  0
 29 52  1  0  0  0  0
 29 53  1  0  0  0  0
 30 54  1  0  0  0  0
 30 55  1  0  0  0  0
 30 56  1  0  0  0  0
M  END
> <r_user_dG.exp>
-9.882

$$$$
29
  -OEChem-05162309453D
 Structure written by MMmdl.
 56 59  0     1  0  0  0  0  0999 V2000
    1.3901   29.1077    6.7935 C   0  0  0  0  0  0  0  0  0  0  0  0
   -1.6911   31.9130    8.0794 C   0  0  0  0  0  0  0  0  0  0  0  0
   -0.7437   26.3748    8.8319 C   0  0  0  0  0  0  0  0  0  0  0  0
   -1.3142   25.5567    9.9914 C   0  0  0  0  0  0  0  0  0  0  0  0
   -1.1214   24.0589    9.6854 C   0  0  0  0  0  0  0  0  0  0  0  0
   -1.5824   23.1795   10.8502 C   0  0  0  0  0  0  0  0  0  0  0  0
   -0.8551   23.5463   12.1491 C   0  0  0  0  0  0  0  0  0  0  0  0
   -1.0780   25.0277   12.4857 C   0  0  0  0  0  0  0  0  0  0  0  0
   -0.6321   25.9351   11.3273 C   0  0  0  0  0  0  0  0  0  0  0  0
    4.6903   25.7129    5.8380 C   0  0  0  0  0  0  0  0  0  0  0  0
    4.6667   25.1395    7.1233 C   0  0  0  0  0  0  0  0  0  0  0  0
    3.9496   25.7658    8.1576 C   0  0  0  0  0  0  0  0  0  0  0  0
    3.2460   26.9556    7.8985 C   0  0  0  0  0  0  0  0  0  0  0  0
    0.6302   28.2313    7.4508 N   0  0  0  0  0  0  0  0  0  0  0  0
   -0.4898   28.6252    8.0923 C   0  0  0  0  0  0  0  0  0  0  0  0
   -1.1796   27.7315    8.8832 O   0  0  0  0  0  0  0  0  0  0  0  0
   -0.8660   29.9818    8.0000 C   0  0  0  0  0  0  0  0  0  0  0  0
   -1.9251   30.7129    8.5212 N   0  0  0  0  0  0  0  0  0  0  0  0
   -0.5542   32.0464    7.3306 N   0  0  0  0  0  0  0  0  0  0  0  0
   -0.0249   30.7863    7.2610 C   0  0  3  0  0  0  0  0  0  0  0  0
    1.1172   30.4049    6.6113 N   0  0  0  0  0  0  0  0  0  0  0  0
    2.5827   28.6807    6.3360 N   0  0  0  0  0  0  0  0  0  0  0  0
    3.2365   27.5251    6.6032 C   0  0  0  0  0  0  0  0  0  0  0  0
    3.9871   26.9068    5.5819 C   0  0  0  0  0  0  0  0  0  0  0  0
    5.4311   23.8790    7.4001 S   0  0  0  0  0  0  0  0  0  0  0  0
    5.8108   23.2938    6.1199 O   0  0  0  0  0  0  0  0  0  0  0  0
    6.4234   24.1721    8.4274 O   0  0  0  0  0  0  0  0  0  0  0  0
    4.4921   22.8906    8.0257 N   0  0  0  0  0  0  0  0  0  0  0  0
    3.8604   21.8742    7.2087 C   0  0  0  0  0  0  0  0  0  0  0  0
    4.2167   22.9522    9.4469 C   0  0  0  0  0  0  0  0  0  0  0  0
   -2.3473   32.7449    8.2886 H   0  0  0  0  0  0  0  0  0  0  0  0
    0.3548   26.3504    8.8841 H   0  0  0  0  0  0  0  0  0  0  0  0
   -1.0756   25.9287    7.8828 H   0  0  0  0  0  0  0  0  0  0  0  0
   -2.3913   25.7635   10.0760 H   0  0  0  0  0  0  0  0  0  0  0  0
   -1.7056   23.7998    8.7901 H   0  0  0  0  0  0  0  0  0  0  0  0
   -0.0549   23.8683    9.4951 H   0  0  0  0  0  0  0  0  0  0  0  0
   -2.6643   23.3154   10.9950 H   0  0  0  0  0  0  0  0  0  0  0  0
   -1.3742   22.1268   10.6083 H   0  0  0  0  0  0  0  0  0  0  0  0
   -1.2434   22.9254   12.9699 H   0  0  0  0  0  0  0  0  0  0  0  0
    0.2221   23.3603   12.0266 H   0  0  0  0  0  0  0  0  0  0  0  0
   -2.1477   25.1942   12.6804 H   0  0  0  0  0  0  0  0  0  0  0  0
   -0.4976   25.2825   13.3847 H   0  0  0  0  0  0  0  0  0  0  0  0
    0.4575   25.8452   11.2064 H   0  0  0  0  0  0  0  0  0  0  0  0
   -0.8891   26.9759   11.5737 H   0  0  0  0  0  0  0  0  0  0  0  0
    5.2489   25.2365    5.0459 H   0  0  0  0  0  0  0  0  0  0  0  0
    3.9391   25.3347    9.1478 H   0  0  0  0  0  0  0  0  0  0  0  0
    2.7061   27.4407    8.6982 H   0  0  0  0  0  0  0  0  0  0  0  0
   -0.6153   30.5819    6.3556 H   0  0  0  0  0  0  0  0  0  0  0  0
    1.6818   31.0231    6.0644 H   0  0  0  0  0  0  0  0  0  0  0  0
    4.0232   27.3508    4.5981 H   0  0  0  0  0  0  0  0  0  0  0  0
    3.2118   21.2476    7.8385 H   0  0  0  0  0  0  0  0  0  0  0  0
    3.2563   22.3563    6.4260 H   0  0  0  0  0  0  0  0  0  0  0  0
    4.6336   21.2471    6.7409 H   0  0  0  0  0  0  0  0  0  0  0  0
    3.5112   22.1534    9.7192 H   0  0  0  0  0  0  0  0  0  0  0  0
    5.1537   22.8206   10.0079 H   0  0  0  0  0  0  0  0  0  0  0  0
    3.7763   23.9297    9.6929 H   0  0  0  0  0  0  0  0  0  0  0  0
  1 14  1  0  0  0  0
  1 21  1  0  0  0  0
  1 22  2  0  0  0  0
  2 18  1  0  0  0  0
  2 19  2  0  0  0  0
  3  4  1  0  0  0  0
  3 16  1  0  0  0  0
  4  5  1  0  0  0  0
  4  9  1  0  0  0  0
  5  6  1  0  0  0  0
  6  7  1  0  0  0  0
  7  8  1  0  0  0  0
  8  9  1  0  0  0  0
 10 11  2  0  0  0  0
 10 24  1  0  0  0  0
 11 12  1  0  0  0  0
 11 25  1  0  0  0  0
 12 13  2  0  0  0  0
 13 23  1  0  0  0  0
 14 15  2  0  0  0  0
 15 16  1  0  0  0  0
 15 17  1  0  0  0  0
 17 18  2  0  0  0  0
 17 20  1  0  0  0  0
 19 20  1  0  0  0  0
 20 21  1  0  0  0  0
 22 23  1  0  0  0  0
 23 24  2  0  0  0  0
 25 26  2  0  0  0  0
 25 27  2  0  0  0  0
 25 28  1  0  0  0  0
 28 29  1  0  0  0  0
 28 30  1  0  0  0  0
  2 31  1  0  0  0  0
  3 32  1  0  0  0  0
  3 33  1  0  0  0  0
  4 34  1  0  0  0  0
  5 35  1  0  0  0  0
  5 36  1  0  0  0  0
  6 37  1  0  0  0  0
  6 38  1  0  0  0  0
  7 39  1  0  0  0  0
  7 40  1  0  0  0  0
  8 41  1  0  0  0  0
  8 42  1  0  0  0  0
  9 43  1  0  0  0  0
  9 44  1  0  0  0  0
 10 45  1  0  0  0  0
 12 46  1  0  0  0  0
 13 47  1  0  0  0  0
 20 48  1  0  0  0  0
 21 49  1  0  0  0  0
 24 50  1  0  0  0  0
 29 51  1  0  0  0  0
 29 52  1  0  0  0  0
 29 53  1  0  0  0  0
 30 54  1  0  0  0  0
 30 55  1  0  0  0  0
 30 56  1  0  0  0  0
M  END
> <r_user_dG.exp>
-9.882

$$$$
29
  -OEChem-05162309453D
 Structure written by MMmdl.
 56 59  0     1  0  0  0  0  0999 V2000
    1.3901   29.1077    6.7935 C   0  0  3  0  0  0  0  0  0  0  0  0
   -1.6911   31.9130    8.0794 C   0  0  0  0  0  0  0  0  0  0  0  0
   -0.7437   26.3748    8.8319 C   0  0  0  0  0  0  0  0  0  0  0  0
   -1.3142   25.5567    9.9914 C   0  0  0  0  0  0  0  0  0  0  0  0
   -1.1214   24.0589    9.6854 C   0  0  0  0  0  0  0  0  0  0  0  0
   -1.5824   23.1795   10.8502 C   0  0  0  0  0  0  0  0  0  0  0  0
   -0.8551   23.5463   12.1491 C   0  0  0  0  0  0  0  0  0  0  0  0
   -1.0780   25.0277   12.4857 C   0  0  0  0  0  0  0  0  0  0  0  0
   -0.6321   25.9351   11.3273 C   0  0  0  0  0  0  0  0  0  0  0  0
    4.6903   25.7129    5.8380 C   0  0  0  0  0  0  0  0  0  0  0  0
    4.6667   25.1395    7.1233 C   0  0  0  0  0  0  0  0  0  0  0  0
    3.9496   25.7658    8.1576 C   0  0  0  0  0  0  0  0  0  0  0  0
    3.2460   26.9556    7.8985 C   0  0  0  0  0  0  0  0  0  0  0  0
    0.6302   28.2313    7.4508 N   0  0  0  0  0  0  0  0  0  0  0  0
   -0.4898   28.6252    8.0923 C   0  0  0  0  0  0  0  0  0  0  0  0
   -1.1796   27.7315    8.8832 O   0  0  0  0  0  0  0  0  0  0  0  0
   -0.8660   29.9818    8.0000 C   0  0  0  0  0  0  0  0  0  0  0  0
   -1.9251   30.7129    8.5212 N   0  0  0  0  0  0  0  0  0  0  0  0
   -0.5542   32.0464    7.3306 N   0  0  0  0  0  0  0  0  0  0  0  0
   -0.0249   30.7863    7.2610 C   0  0  0  0  0  0  0  0  0  0  0  0
    1.1172   30.4049    6.6113 N   0  0  0  0  0  0  0  0  0  0  0  0
    2.5827   28.6807    6.3360 N   0  0  0  0  0  0  0  0  0  0  0  0
    3.2365   27.5251    6.6032 C   0  0  0  0  0  0  0  0  0  0  0  0
    3.9871   26.9068    5.5819 C   0  0  0  0  0  0  0  0  0  0  0  0
    5.4311   23.8790    7.4001 S   0  0  0  0  0  0  0  0  0  0  0  0
    5.8108   23.2938    6.1199 O   0  0  0  0  0  0  0  0  0  0  0  0
    6.4234   24.1721    8.4274 O   0  0  0  0  0  0  0  0  0  0  0  0
    4.4921   22.8906    8.0257 N   0  0  0  0  0  0  0  0  0  0  0  0
    3.8604   21.8742    7.2087 C   0  0  0  0  0  0  0  0  0  0  0  0
    4.2167   22.9522    9.4469 C   0  0  0  0  0  0  0  0  0  0  0  0
    0.9058   28.8482    5.8406 H   0  0  0  0  0  0  0  0  0  0  0  0
   -2.3473   32.7449    8.2886 H   0  0  0  0  0  0  0  0  0  0  0  0
    0.3548   26.3504    8.8841 H   0  0  0  0  0  0  0  0  0  0  0  0
   -1.0756   25.9287    7.8828 H   0  0  0  0  0  0  0  0  0  0  0  0
   -2.3913   25.7635   10.0760 H   0  0  0  0  0  0  0  0  0  0  0  0
   -1.7056   23.7998    8.7901 H   0  0  0  0  0  0  0  0  0  0  0  0
   -0.0549   23.8683    9.4951 H   0  0  0  0  0  0  0  0  0  0  0  0
   -2.6643   23.3154   10.9950 H   0  0  0  0  0  0  0  0  0  0  0  0
   -1.3742   22.1268   10.6083 H   0  0  0  0  0  0  0  0  0  0  0  0
   -1.2434   22.9254   12.9699 H   0  0  0  0  0  0  0  0  0  0  0  0
    0.2221   23.3603   12.0266 H   0  0  0  0  0  0  0  0  0  0  0  0
   -2.1477   25.1942   12.6804 H   0  0  0  0  0  0  0  0  0  0  0  0
   -0.4976   25.2825   13.3847 H   0  0  0  0  0  0  0  0  0  0  0  0
    0.4575   25.8452   11.2064 H   0  0  0  0  0  0  0  0  0  0  0  0
   -0.8891   26.9759   11.5737 H   0  0  0  0  0  0  0  0  0  0  0  0
    5.2489   25.2365    5.0459 H   0  0  0  0  0  0  0  0  0  0  0  0
    3.9391   25.3347    9.1478 H   0  0  0  0  0  0  0  0  0  0  0  0
    2.7061   27.4407    8.6982 H   0  0  0  0  0  0  0  0  0  0  0  0
    2.4825   28.6846    5.3410 H   0  0  0  0  0  0  0  0  0  0  0  0
    4.0232   27.3508    4.5981 H   0  0  0  0  0  0  0  0  0  0  0  0
    3.2118   21.2476    7.8385 H   0  0  0  0  0  0  0  0  0  0  0  0
    3.2563   22.3563    6.4260 H   0  0  0  0  0  0  0  0  0  0  0  0
    4.6336   21.2471    6.7409 H   0  0  0  0  0  0  0  0  0  0  0  0
    3.5112   22.1534    9.7192 H   0  0  0  0  0  0  0  0  0  0  0  0
    5.1537   22.8206   10.0079 H   0  0  0  0  0  0  0  0  0  0  0  0
    3.7763   23.9297    9.6929 H   0  0  0  0  0  0  0  0  0  0  0  0
  1 14  1  0  0  0  0
  1 21  1  0  0  0  0
  1 22  1  0  0  0  0
  2 18  1  0  0  0  0
  2 19  2  0  0  0  0
  3  4  1  0  0  0  0
  3 16  1  0  0  0  0
  4  5  1  0  0  0  0
  4  9  1  0  0  0  0
  5  6  1  0  0  0  0
  6  7  1  0  0  0  0
  7  8  1  0  0  0  0
  8  9  1  0  0  0  0
 10 11  2  0  0  0  0
 10 24  1  0  0  0  0
 11 12  1  0  0  0  0
 11 25  1  0  0  0  0
 12 13  2  0  0  0  0
 13 23  1  0  0  0  0
 14 15  2  0  0  0  0
 15 16  1  0  0  0  0
 15 17  1  0  0  0  0
 17 18  2  0  0  0  0
 17 20  1  0  0  0  0
 19 20  1  0  0  0  0
 20 21  2  0  0  0  0
 22 23  1  0  0  0  0
 23 24  2  0  0  0  0
 25 26  2  0  0  0  0
 25 27  2  0  0  0  0
 25 28  1  0  0  0  0
 28 29  1  0  0  0  0
 28 30  1  0  0  0  0
  1 31  1  0  0  0  0
  2 32  1  0  0  0  0
  3 33  1  0  0  0  0
  3 34  1  0  0  0  0
  4 35  1  0  0  0  0
  5 36  1  0  0  0  0
  5 37  1  0  0  0  0
  6 38  1  0  0  0  0
  6 39  1  0  0  0  0
  7 40  1  0  0  0  0
  7 41  1  0  0  0  0
  8 42  1  0  0  0  0
  8 43  1  0  0  0  0
  9 44  1  0  0  0  0
  9 45  1  0  0  0  0
 10 46  1  0  0  0  0
 12 47  1  0  0  0  0
 13 48  1  0  0  0  0
 22 49  1  0  0  0  0
 24 50  1  0  0  0  0
 29 51  1  0  0  0  0
 29 52  1  0  0  0  0
 29 53  1  0  0  0  0
 30 54  1  0  0  0  0
 30 55  1  0  0  0  0
 30 56  1  0  0  0  0
M  END
> <r_user_dG.exp>
-9.882

$$$$
29
  -OEChem-05162309453D
 Structure written by MMmdl.
 56 59  0     1  0  0  0  0  0999 V2000
    1.3901   29.1077    6.7935 C   0  0  0  0  0  0  0  0  0  0  0  0
   -1.6911   31.9130    8.0794 C   0  0  0  0  0  0  0  0  0  0  0  0
   -0.7437   26.3748    8.8319 C   0  0  0  0  0  0  0  0  0  0  0  0
   -1.3142   25.5567    9.9914 C   0  0  0  0  0  0  0  0  0  0  0  0
   -1.1214   24.0589    9.6854 C   0  0  0  0  0  0  0  0  0  0  0  0
   -1.5824   23.1795   10.8502 C   0  0  0  0  0  0  0  0  0  0  0  0
   -0.8551   23.5463   12.1491 C   0  0  0  0  0  0  0  0  0  0  0  0
   -1.0780   25.0277   12.4857 C   0  0  0  0  0  0  0  0  0  0  0  0
   -0.6321   25.9351   11.3273 C   0  0  0  0  0  0  0  0  0  0  0  0
    4.6903   25.7129    5.8380 C   0  0  0  0  0  0  0  0  0  0  0  0
    4.6667   25.1395    7.1233 C   0  0  0  0  0  0  0  0  0  0  0  0
    3.9496   25.7658    8.1576 C   0  0  0  0  0  0  0  0  0  0  0  0
    3.2460   26.9556    7.8985 C   0  0  0  0  0  0  0  0  0  0  0  0
    0.6302   28.2313    7.4508 N   0  0  0  0  0  0  0  0  0  0  0  0
   -0.4898   28.6252    8.0923 C   0  0  3  0  0  0  0  0  0  0  0  0
   -1.1796   27.7315    8.8832 O   0  0  0  0  0  0  0  0  0  0  0  0
   -0.8660   29.9818    8.0000 C   0  0  0  0  0  0  0  0  0  0  0  0
   -1.9251   30.7129    8.5212 N   0  0  0  0  0  0  0  0  0  0  0  0
   -0.5542   32.0464    7.3306 N   0  0  0  0  0  0  0  0  0  0  0  0
   -0.0249   30.7863    7.2610 C   0  0  0  0  0  0  0  0  0  0  0  0
    1.1172   30.4049    6.6113 N   0  0  0  0  0  0  0  0  0  0  0  0
    2.5827   28.6807    6.3360 N   0  0  0  0  0  0  0  0  0  0  0  0
    3.2365   27.5251    6.6032 C   0  0  0  0  0  0  0  0  0  0  0  0
    3.9871   26.9068    5.5819 C   0  0  0  0  0  0  0  0  0  0  0  0
    5.4311   23.8790    7.4001 S   0  0  0  0  0  0  0  0  0  0  0  0
    5.8108   23.2938    6.1199 O   0  0  0  0  0  0  0  0  0  0  0  0
    6.4234   24.1721    8.4274 O   0  0  0  0  0  0  0  0  0  0  0  0
    4.4921   22.8906    8.0257 N   0  0  0  0  0  0  0  0  0  0  0  0
    3.8604   21.8742    7.2087 C   0  0  0  0  0  0  0  0  0  0  0  0
    4.2167   22.9522    9.4469 C   0  0  0  0  0  0  0  0  0  0  0  0
   -2.3473   32.7449    8.2886 H   0  0  0  0  0  0  0  0  0  0  0  0
    0.3548   26.3504    8.8841 H   0  0  0  0  0  0  0  0  0  0  0  0
   -1.0756   25.9287    7.8828 H   0  0  0  0  0  0  0  0  0  0  0  0
   -2.3913   25.7635   10.0760 H   0  0  0  0  0  0  0  0  0  0  0  0
   -1.7056   23.7998    8.7901 H   0  0  0  0  0  0  0  0  0  0  0  0
   -0.0549   23.8683    9.4951 H   0  0  0  0  0  0  0  0  0  0  0  0
   -2.6643   23.3154   10.9950 H   0  0  0  0  0  0  0  0  0  0  0  0
   -1.3742   22.1268   10.6083 H   0  0  0  0  0  0  0  0  0  0  0  0
   -1.2434   22.9254   12.9699 H   0  0  0  0  0  0  0  0  0  0  0  0
    0.2221   23.3603   12.0266 H   0  0  0  0  0  0  0  0  0  0  0  0
   -2.1477   25.1942   12.6804 H   0  0  0  0  0  0  0  0  0  0  0  0
   -0.4976   25.2825   13.3847 H   0  0  0  0  0  0  0  0  0  0  0  0
    0.4575   25.8452   11.2064 H   0  0  0  0  0  0  0  0  0  0  0  0
   -0.8891   26.9759   11.5737 H   0  0  0  0  0  0  0  0  0  0  0  0
    5.2489   25.2365    5.0459 H   0  0  0  0  0  0  0  0  0  0  0  0
    3.9391   25.3347    9.1478 H   0  0  0  0  0  0  0  0  0  0  0  0
    2.7061   27.4407    8.6982 H   0  0  0  0  0  0  0  0  0  0  0  0
   -1.1094   28.3692    7.2202 H   0  0  0  0  0  0  0  0  0  0  0  0
    3.0515   29.3048    5.7110 H   0  0  0  0  0  0  0  0  0  0  0  0
    4.0232   27.3508    4.5981 H   0  0  0  0  0  0  0  0  0  0  0  0
    3.2118   21.2476    7.8385 H   0  0  0  0  0  0  0  0  0  0  0  0
    3.2563   22.3563    6.4260 H   0  0  0  0  0  0  0  0  0  0  0  0
    4.6336   21.2471    6.7409 H   0  0  0  0  0  0  0  0  0  0  0  0
    3.5112   22.1534    9.7192 H   0  0  0  0  0  0  0  0  0  0  0  0
    5.1537   22.8206   10.0079 H   0  0  0  0  0  0  0  0  0  0  0  0
    3.7763   23.9297    9.6929 H   0  0  0  0  0  0  0  0  0  0  0  0
  1 14  2  0  0  0  0
  1 21  1  0  0  0  0
  1 22  1  0  0  0  0
  2 18  1  0  0  0  0
  2 19  2  0  0  0  0
  3  4  1  0  0  0  0
  3 16  1  0  0  0  0
  4  5  1  0  0  0  0
  4  9  1  0  0  0  0
  5  6  1  0  0  0  0
  6  7  1  0  0  0  0
  7  8  1  0  0  0  0
  8  9  1  0  0  0  0
 10 11  2  0  0  0  0
 10 24  1  0  0  0  0
 11 12  1  0  0  0  0
 11 25  1  0  0  0  0
 12 13  2  0  0  0  0
 13 23  1  0  0  0  0
 14 15  1  0  0  0  0
 15 16  1  0  0  0  0
 15 17  1  0  0  0  0
 17 18  2  0  0  0  0
 17 20  1  0  0  0  0
 19 20  1  0  0  0  0
 20 21  2  0  0  0  0
 22 23  1  0  0  0  0
 23 24  2  0  0  0  0
 25 26  2  0  0  0  0
 25 27  2  0  0  0  0
 25 28  1  0  0  0  0
 28 29  1  0  0  0  0
 28 30  1  0  0  0  0
  2 31  1  0  0  0  0
  3 32  1  0  0  0  0
  3 33  1  0  0  0  0
  4 34  1  0  0  0  0
  5 35  1  0  0  0  0
  5 36  1  0  0  0  0
  6 37  1  0  0  0  0
  6 38  1  0  0  0  0
  7 39  1  0  0  0  0
  7 40  1  0  0  0  0
  8 41  1  0  0  0  0
  8 42  1  0  0  0  0
  9 43  1  0  0  0  0
  9 44  1  0  0  0  0
 10 45  1  0  0  0  0
 12 46  1  0  0  0  0
 13 47  1  0  0  0  0
 15 48  1  0  0  0  0
 22 49  1  0  0  0  0
 24 50  1  0  0  0  0
 29 51  1  0  0  0  0
 29 52  1  0  0  0  0
 29 53  1  0  0  0  0
 30 54  1  0  0  0  0
 30 55  1  0  0  0  0
 30 56  1  0  0  0  0
M  END
> <r_user_dG.exp>
-9.882

$$$$
29
  -OEChem-05162309453D
 Structure written by MMmdl.
 56 59  0     1  0  0  0  0  0999 V2000
    1.3901   29.1077    6.7935 C   0  0  0  0  0  0  0  0  0  0  0  0
   -1.6911   31.9130    8.0794 C   0  0  0  0  0  0  0  0  0  0  0  0
   -0.7437   26.3748    8.8319 C   0  0  0  0  0  0  0  0  0  0  0  0
   -1.3142   25.5567    9.9914 C   0  0  0  0  0  0  0  0  0  0  0  0
   -1.1214   24.0589    9.6854 C   0  0  0  0  0  0  0  0  0  0  0  0
   -1.5824   23.1795   10.8502 C   0  0  0  0  0  0  0  0  0  0  0  0
   -0.8551   23.5463   12.1491 C   0  0  0  0  0  0  0  0  0  0  0  0
   -1.0780   25.0277   12.4857 C   0  0  0  0  0  0  0  0  0  0  0  0
   -0.6321   25.9351   11.3273 C   0  0  0  0  0  0  0  0  0  0  0  0
    4.6903   25.7129    5.8380 C   0  0  0  0  0  0  0  0  0  0  0  0
    4.6667   25.1395    7.1233 C   0  0  0  0  0  0  0  0  0  0  0  0
    3.9496   25.7658    8.1576 C   0  0  0  0  0  0  0  0  0  0  0  0
    3.2460   26.9556    7.8985 C   0  0  0  0  0  0  0  0  0  0  0  0
    0.6302   28.2313    7.4508 N   0  0  0  0  0  0  0  0  0  0  0  0
   -0.4898   28.6252    8.0923 C   0  0  3  0  0  0  0  0  0  0  0  0
   -1.1796   27.7315    8.8832 O   0  0  0  0  0  0  0  0  0  0  0  0
   -0.8660   29.9818    8.0000 C   0  0  0  0  0  0  0  0  0  0  0  0
   -1.9251   30.7129    8.5212 N   0  0  0  0  0  0  0  0  0  0  0  0
   -0.5542   32.0464    7.3306 N   0  0  0  0  0  0  0  0  0  0  0  0
   -0.0249   30.7863    7.2610 C   0  0  0  0  0  0  0  0  0  0  0  0
    1.1172   30.4049    6.6113 N   0  0  0  0  0  0  0  0  0  0  0  0
    2.5827   28.6807    6.3360 N   0  0  0  0  0  0  0  0  0  0  0  0
    3.2365   27.5251    6.6032 C   0  0  0  0  0  0  0  0  0  0  0  0
    3.9871   26.9068    5.5819 C   0  0  0  0  0  0  0  0  0  0  0  0
    5.4311   23.8790    7.4001 S   0  0  0  0  0  0  0  0  0  0  0  0
    5.8108   23.2938    6.1199 O   0  0  0  0  0  0  0  0  0  0  0  0
    6.4234   24.1721    8.4274 O   0  0  0  0  0  0  0  0  0  0  0  0
    4.4921   22.8906    8.0257 N   0  0  0  0  0  0  0  0  0  0  0  0
    3.8604   21.8742    7.2087 C   0  0  0  0  0  0  0  0  0  0  0  0
    4.2167   22.9522    9.4469 C   0  0  0  0  0  0  0  0  0  0  0  0
   -2.3473   32.7449    8.2886 H   0  0  0  0  0  0  0  0  0  0  0  0
    0.3548   26.3504    8.8841 H   0  0  0  0  0  0  0  0  0  0  0  0
   -1.0756   25.9287    7.8828 H   0  0  0  0  0  0  0  0  0  0  0  0
   -2.3913   25.7635   10.0760 H   0  0  0  0  0  0  0  0  0  0  0  0
   -1.7056   23.7998    8.7901 H   0  0  0  0  0  0  0  0  0  0  0  0
   -0.0549   23.8683    9.4951 H   0  0  0  0  0  0  0  0  0  0  0  0
   -2.6643   23.3154   10.9950 H   0  0  0  0  0  0  0  0  0  0  0  0
   -1.3742   22.1268   10.6083 H   0  0  0  0  0  0  0  0  0  0  0  0
   -1.2434   22.9254   12.9699 H   0  0  0  0  0  0  0  0  0  0  0  0
    0.2221   23.3603   12.0266 H   0  0  0  0  0  0  0  0  0  0  0  0
   -2.1477   25.1942   12.6804 H   0  0  0  0  0  0  0  0  0  0  0  0
   -0.4976   25.2825   13.3847 H   0  0  0  0  0  0  0  0  0  0  0  0
    0.4575   25.8452   11.2064 H   0  0  0  0  0  0  0  0  0  0  0  0
   -0.8891   26.9759   11.5737 H   0  0  0  0  0  0  0  0  0  0  0  0
    5.2489   25.2365    5.0459 H   0  0  0  0  0  0  0  0  0  0  0  0
    3.9391   25.3347    9.1478 H   0  0  0  0  0  0  0  0  0  0  0  0
    2.7061   27.4407    8.6982 H   0  0  0  0  0  0  0  0  0  0  0  0
    0.8943   27.2670    7.4687 H   0  0  0  0  0  0  0  0  0  0  0  0
   -1.1094   28.3692    7.2202 H   0  0  0  0  0  0  0  0  0  0  0  0
    4.0232   27.3508    4.5981 H   0  0  0  0  0  0  0  0  0  0  0  0
    3.2118   21.2476    7.8385 H   0  0  0  0  0  0  0  0  0  0  0  0
    3.2563   22.3563    6.4260 H   0  0  0  0  0  0  0  0  0  0  0  0
    4.6336   21.2471    6.7409 H   0  0  0  0  0  0  0  0  0  0  0  0
    3.5112   22.1534    9.7192 H   0  0  0  0  0  0  0  0  0  0  0  0
    5.1537   22.8206   10.0079 H   0  0  0  0  0  0  0  0  0  0  0  0
    3.7763   23.9297    9.6929 H   0  0  0  0  0  0  0  0  0  0  0  0
  1 14  1  0  0  0  0
  1 21  1  0  0  0  0
  1 22  2  0  0  0  0
  2 18  1  0  0  0  0
  2 19  2  0  0  0  0
  3  4  1  0  0  0  0
  3 16  1  0  0  0  0
  4  5  1  0  0  0  0
  4  9  1  0  0  0  0
  5  6  1  0  0  0  0
  6  7  1  0  0  0  0
  7  8  1  0  0  0  0
  8  9  1  0  0  0  0
 10 11  2  0  0  0  0
 10 24  1  0  0  0  0
 11 12  1  0  0  0  0
 11 25  1  0  0  0  0
 12 13  2  0  0  0  0
 13 23  1  0  0  0  0
 14 15  1  0  0  0  0
 15 16  1  0  0  0  0
 15 17  1  0  0  0  0
 17 18  2  0  0  0  0
 17 20  1  0  0  0  0
 19 20  1  0  0  0  0
 20 21  2  0  0  0  0
 22 23  1  0  0  0  0
 23 24  2  0  0  0  0
 25 26  2  0  0  0  0
 25 27  2  0  0  0  0
 25 28  1  0  0  0  0
 28 29  1  0  0  0  0
 28 30  1  0  0  0  0
  2 31  1  0  0  0  0
  3 32  1  0  0  0  0
  3 33  1  0  0  0  0
  4 34  1  0  0  0  0
  5 35  1  0  0  0  0
  5 36  1  0  0  0  0
  6 37  1  0  0  0  0
  6 38  1  0  0  0  0
  7 39  1  0  0  0  0
  7 40  1  0  0  0  0
  8 41  1  0  0  0  0
  8 42  1  0  0  0  0
  9 43  1  0  0  0  0
  9 44  1  0  0  0  0
 10 45  1  0  0  0  0
 12 46  1  0  0  0  0
 13 47  1  0  0  0  0
 14 48  1  0  0  0  0
 15 49  1  0  0  0  0
 24 50  1  0  0  0  0
 29 51  1  0  0  0  0
 29 52  1  0  0  0  0
 29 53  1  0  0  0  0
 30 54  1  0  0  0  0
 30 55  1  0  0  0  0
 30 56  1  0  0  0  0
M  END
> <r_user_dG.exp>
-9.882

$$$$
29
  -OEChem-05162309453D
 Structure written by MMmdl.
 56 59  0     0  0  0  0  0  0999 V2000
    1.3901   29.1077    6.7935 C   0  0  0  0  0  0  0  0  0  0  0  0
   -1.6911   31.9130    8.0794 C   0  0  0  0  0  0  0  0  0  0  0  0
   -0.7437   26.3748    8.8319 C   0  0  0  0  0  0  0  0  0  0  0  0
   -1.3142   25.5567    9.9914 C   0  0  0  0  0  0  0  0  0  0  0  0
   -1.1214   24.0589    9.6854 C   0  0  0  0  0  0  0  0  0  0  0  0
   -1.5824   23.1795   10.8502 C   0  0  0  0  0  0  0  0  0  0  0  0
   -0.8551   23.5463   12.1491 C   0  0  0  0  0  0  0  0  0  0  0  0
   -1.0780   25.0277   12.4857 C   0  0  0  0  0  0  0  0  0  0  0  0
   -0.6321   25.9351   11.3273 C   0  0  0  0  0  0  0  0  0  0  0  0
    4.6903   25.7129    5.8380 C   0  0  0  0  0  0  0  0  0  0  0  0
    4.6667   25.1395    7.1233 C   0  0  0  0  0  0  0  0  0  0  0  0
    3.9496   25.7658    8.1576 C   0  0  0  0  0  0  0  0  0  0  0  0
    3.2460   26.9556    7.8985 C   0  0  0  0  0  0  0  0  0  0  0  0
    0.6302   28.2313    7.4508 N   0  0  0  0  0  0  0  0  0  0  0  0
   -0.4898   28.6252    8.0923 C   0  0  0  0  0  0  0  0  0  0  0  0
   -1.1796   27.7315    8.8832 O   0  0  0  0  0  0  0  0  0  0  0  0
   -0.8660   29.9818    8.0000 C   0  0  0  0  0  0  0  0  0  0  0  0
   -1.9251   30.7129    8.5212 N   0  0  0  0  0  0  0  0  0  0  0  0
   -0.5542   32.0464    7.3306 N   0  0  0  0  0  0  0  0  0  0  0  0
   -0.0249   30.7863    7.2610 C   0  0  0  0  0  0  0  0  0  0  0  0
    1.1172   30.4049    6.6113 N   0  0  0  0  0  0  0  0  0  0  0  0
    2.5827   28.6807    6.3360 N   0  0  0  0  0  0  0  0  0  0  0  0
    3.2365   27.5251    6.6032 C   0  0  0  0  0  0  0  0  0  0  0  0
    3.9871   26.9068    5.5819 C   0  0  0  0  0  0  0  0  0  0  0  0
    5.4311   23.8790    7.4001 S   0  0  0  0  0  0  0  0  0  0  0  0
    5.8108   23.2938    6.1199 O   0  0  0  0  0  0  0  0  0  0  0  0
    6.4234   24.1721    8.4274 O   0  0  0  0  0  0  0  0  0  0  0  0
    4.4921   22.8906    8.0257 N   0  0  0  0  0  0  0  0  0  0  0  0
    3.8604   21.8742    7.2087 C   0  0  0  0  0  0  0  0  0  0  0  0
    4.2167   22.9522    9.4469 C   0  0  0  0  0  0  0  0  0  0  0  0
   -2.5456   32.2197    7.4583 H   0  0  0  0  0  0  0  0  0  0  0  0
   -1.6083   32.5848    8.9465 H   0  0  0  0  0  0  0  0  0  0  0  0
    0.3548   26.3504    8.8841 H   0  0  0  0  0  0  0  0  0  0  0  0
   -1.0756   25.9287    7.8828 H   0  0  0  0  0  0  0  0  0  0  0  0
   -2.3913   25.7635   10.0760 H   0  0  0  0  0  0  0  0  0  0  0  0
   -1.7056   23.7998    8.7901 H   0  0  0  0  0  0  0  0  0  0  0  0
   -0.0549   23.8683    9.4951 H   0  0  0  0  0  0  0  0  0  0  0  0
   -2.6643   23.3154   10.9950 H   0  0  0  0  0  0  0  0  0  0  0  0
   -1.3742   22.1268   10.6083 H   0  0  0  0  0  0  0  0  0  0  0  0
   -1.2434   22.9254   12.9699 H   0  0  0  0  0  0  0  0  0  0  0  0
    0.2221   23.3603   12.0266 H   0  0  0  0  0  0  0  0  0  0  0  0
   -2.1477   25.1942   12.6804 H   0  0  0  0  0  0  0  0  0  0  0  0
   -0.4976   25.2825   13.3847 H   0  0  0  0  0  0  0  0  0  0  0  0
    0.4575   25.8452   11.2064 H   0  0  0  0  0  0  0  0  0  0  0  0
   -0.8891   26.9759   11.5737 H   0  0  0  0  0  0  0  0  0  0  0  0
    5.2489   25.2365    5.0459 H   0  0  0  0  0  0  0  0  0  0  0  0
    3.9391   25.3347    9.1478 H   0  0  0  0  0  0  0  0  0  0  0  0
    2.7061   27.4407    8.6982 H   0  0  0  0  0  0  0  0  0  0  0  0
   -0.1890   32.8832    6.9226 H   0  0  0  0  0  0  0  0  0  0  0  0
    4.0232   27.3508    4.5981 H   0  0  0  0  0  0  0  0  0  0  0  0
    3.2118   21.2476    7.8385 H   0  0  0  0  0  0  0  0  0  0  0  0
    3.2563   22.3563    6.4260 H   0  0  0  0  0  0  0  0  0  0  0  0
    4.6336   21.2471    6.7409 H   0  0  0  0  0  0  0  0  0  0  0  0
    3.5112   22.1534    9.7192 H   0  0  0  0  0  0  0  0  0  0  0  0
    5.1537   22.8206   10.0079 H   0  0  0  0  0  0  0  0  0  0  0  0
    3.7763   23.9297    9.6929 H   0  0  0  0  0  0  0  0  0  0  0  0
  1 14  1  0  0  0  0
  1 21  1  0  0  0  0
  1 22  2  0  0  0  0
  2 18  1  0  0  0  0
  2 19  1  0  0  0  0
  3  4  1  0  0  0  0
  3 16  1  0  0  0  0
  4  5  1  0  0  0  0
  4  9  1  0  0  0  0
  5  6  1  0  0  0  0
  6  7  1  0  0  0  0
  7  8  1  0  0  0  0
  8  9  1  0  0  0  0
 10 11  2  0  0  0  0
 10 24  1  0  0  0  0
 11 12  1  0  0  0  0
 11 25  1  0  0  0  0
 12 13  2  0  0  0  0
 13 23  1  0  0  0  0
 14 15  2  0  0  0  0
 15 16  1  0  0  0  0
 15 17  1  0  0  0  0
 17 18  2  0  0  0  0
 17 20  1  0  0  0  0
 19 20  1  0  0  0  0
 20 21  2  0  0  0  0
 22 23  1  0  0  0  0
 23 24  2  0  0  0  0
 25 26  2  0  0  0  0
 25 27  2  0  0  0  0
 25 28  1  0  0  0  0
 28 29  1  0  0  0  0
 28 30  1  0  0  0  0
  2 31  1  0  0  0  0
  2 32  1  0  0  0  0
  3 33  1  0  0  0  0
  3 34  1  0  0  0  0
  4 35  1  0  0  0  0
  5 36  1  0  0  0  0
  5 37  1  0  0  0  0
  6 38  1  0  0  0  0
  6 39  1  0  0  0  0
  7 40  1  0  0  0  0
  7 41  1  0  0  0  0
  8 42  1  0  0  0  0
  8 43  1  0  0  0  0
  9 44  1  0  0  0  0
  9 45  1  0  0  0  0
 10 46  1  0  0  0  0
 12 47  1  0  0  0  0
 13 48  1  0  0  0  0
 19 49  1  0  0  0  0
 24 50  1  0  0  0  0
 29 51  1  0  0  0  0
 29 52  1  0  0  0  0
 29 53  1  0  0  0  0
 30 54  1  0  0  0  0
 30 55  1  0  0  0  0
 30 56  1  0  0  0  0
M  END
> <r_user_dG.exp>
-9.882

$$$$
29
  -OEChem-05162309453D
 Structure written by MMmdl.
 56 59  0     0  0  0  0  0  0999 V2000
    1.3901   29.1077    6.7935 C   0  0  0  0  0  0  0  0  0  0  0  0
   -1.6911   31.9130    8.0794 C   0  0  0  0  0  0  0  0  0  0  0  0
   -0.7437   26.3748    8.8319 C   0  0  0  0  0  0  0  0  0  0  0  0
   -1.3142   25.5567    9.9914 C   0  0  0  0  0  0  0  0  0  0  0  0
   -1.1214   24.0589    9.6854 C   0  0  0  0  0  0  0  0  0  0  0  0
   -1.5824   23.1795   10.8502 C   0  0  0  0  0  0  0  0  0  0  0  0
   -0.8551   23.5463   12.1491 C   0  0  0  0  0  0  0  0  0  0  0  0
   -1.0780   25.0277   12.4857 C   0  0  0  0  0  0  0  0  0  0  0  0
   -0.6321   25.9351   11.3273 C   0  0  0  0  0  0  0  0  0  0  0  0
    4.6903   25.7129    5.8380 C   0  0  0  0  0  0  0  0  0  0  0  0
    4.6667   25.1395    7.1233 C   0  0  0  0  0  0  0  0  0  0  0  0
    3.9496   25.7658    8.1576 C   0  0  0  0  0  0  0  0  0  0  0  0
    3.2460   26.9556    7.8985 C   0  0  0  0  0  0  0  0  0  0  0  0
    0.6302   28.2313    7.4508 N   0  0  0  0  0  0  0  0  0  0  0  0
   -0.4898   28.6252    8.0923 C   0  0  0  0  0  0  0  0  0  0  0  0
   -1.1796   27.7315    8.8832 O   0  0  0  0  0  0  0  0  0  0  0  0
   -0.8660   29.9818    8.0000 C   0  0  0  0  0  0  0  0  0  0  0  0
   -1.9251   30.7129    8.5212 N   0  0  0  0  0  0  0  0  0  0  0  0
   -0.5542   32.0464    7.3306 N   0  0  0  0  0  0  0  0  0  0  0  0
   -0.0249   30.7863    7.2610 C   0  0  0  0  0  0  0  0  0  0  0  0
    1.1172   30.4049    6.6113 N   0  0  0  0  0  0  0  0  0  0  0  0
    2.5827   28.6807    6.3360 N   0  0  0  0  0  0  0  0  0  0  0  0
    3.2365   27.5251    6.6032 C   0  0  0  0  0  0  0  0  0  0  0  0
    3.9871   26.9068    5.5819 C   0  0  0  0  0  0  0  0  0  0  0  0
    5.4311   23.8790    7.4001 S   0  0  0  0  0  0  0  0  0  0  0  0
    5.8108   23.2938    6.1199 O   0  0  0  0  0  0  0  0  0  0  0  0
    6.4234   24.1721    8.4274 O   0  0  0  0  0  0  0  0  0  0  0  0
    4.4921   22.8906    8.0257 N   0  0  0  0  0  0  0  0  0  0  0  0
    3.8604   21.8742    7.2087 C   0  0  0  0  0  0  0  0  0  0  0  0
    4.2167   22.9522    9.4469 C   0  0  0  0  0  0  0  0  0  0  0  0
   -2.5456   32.2197    7.4583 H   0  0  0  0  0  0  0  0  0  0  0  0
   -1.6083   32.5848    8.9465 H   0  0  0  0  0  0  0  0  0  0  0  0
    0.3548   26.3504    8.8841 H   0  0  0  0  0  0  0  0  0  0  0  0
   -1.0756   25.9287    7.8828 H   0  0  0  0  0  0  0  0  0  0  0  0
   -2.3913   25.7635   10.0760 H   0  0  0  0  0  0  0  0  0  0  0  0
   -1.7056   23.7998    8.7901 H   0  0  0  0  0  0  0  0  0  0  0  0
   -0.0549   23.8683    9.4951 H   0  0  0  0  0  0  0  0  0  0  0  0
   -2.6643   23.3154   10.9950 H   0  0  0  0  0  0  0  0  0  0  0  0
   -1.3742   22.1268   10.6083 H   0  0  0  0  0  0  0  0  0  0  0  0
   -1.2434   22.9254   12.9699 H   0  0  0  0  0  0  0  0  0  0  0  0
    0.2221   23.3603   12.0266 H   0  0  0  0  0  0  0  0  0  0  0  0
   -2.1477   25.1942   12.6804 H   0  0  0  0  0  0  0  0  0  0  0  0
   -0.4976   25.2825   13.3847 H   0  0  0  0  0  0  0  0  0  0  0  0
    0.4575   25.8452   11.2064 H   0  0  0  0  0  0  0  0  0  0  0  0
   -0.8891   26.9759   11.5737 H   0  0  0  0  0  0  0  0  0  0  0  0
    5.2489   25.2365    5.0459 H   0  0  0  0  0  0  0  0  0  0  0  0
    3.7780   24.5503    6.8530 H   0  0  0  0  0  0  0  0  0  0  0  0
    3.9391   25.3347    9.1478 H   0  0  0  0  0  0  0  0  0  0  0  0
    2.7061   27.4407    8.6982 H   0  0  0  0  0  0  0  0  0  0  0  0
    4.0232   27.3508    4.5981 H   0  0  0  0  0  0  0  0  0  0  0  0
    3.2118   21.2476    7.8385 H   0  0  0  0  0  0  0  0  0  0  0  0
    3.2563   22.3563    6.4260 H   0  0  0  0  0  0  0  0  0  0  0  0
    4.6336   21.2471    6.7409 H   0  0  0  0  0  0  0  0  0  0  0  0
    3.5112   22.1534    9.7192 H   0  0  0  0  0  0  0  0  0  0  0  0
    5.1537   22.8206   10.0079 H   0  0  0  0  0  0  0  0  0  0  0  0
    3.7763   23.9297    9.6929 H   0  0  0  0  0  0  0  0  0  0  0  0
  1 14  1  0  0  0  0
  1 21  2  0  0  0  0
  1 22  1  0  0  0  0
  2 18  1  0  0  0  0
  2 19  1  0  0  0  0
  3  4  1  0  0  0  0
  3 16  1  0  0  0  0
  4  5  1  0  0  0  0
  4  9  1  0  0  0  0
  5  6  1  0  0  0  0
  6  7  1  0  0  0  0
  7  8  1  0  0  0  0
  8  9  1  0  0  0  0
 10 11  1  0  0  0  0
 10 24  2  0  0  0  0
 11 12  1  0  0  0  0
 11 25  1  0  0  0  0
 12 13  2  0  0  0  0
 13 23  1  0  0  0  0
 14 15  2  0  0  0  0
 15 16  1  0  0  0  0
 15 17  1  0  0  0  0
 17 18  2  0  0  0  0
 17 20  1  0  0  0  0
 19 20  2  0  0  0  0
 20 21  1  0  0  0  0
 22 23  2  0  0  0  0
 23 24  1  0  0  0  0
 25 26  2  0  0  0  0
 25 27  2  0  0  0  0
 25 28  1  0  0  0  0
 28 29  1  0  0  0  0
 28 30  1  0  0  0  0
  2 31  1  0  0  0  0
  2 32  1  0  0  0  0
  3 33  1  0  0  0  0
  3 34  1  0  0  0  0
  4 35  1  0  0  0  0
  5 36  1  0  0  0  0
  5 37  1  0  0  0  0
  6 38  1  0  0  0  0
  6 39  1  0  0  0  0
  7 40  1  0  0  0  0
  7 41  1  0  0  0  0
  8 42  1  0  0  0  0
  8 43  1  0  0  0  0
  9 44  1  0  0  0  0
  9 45  1  0  0  0  0
 10 46  1  0  0  0  0
 11 47  1  0  0  0  0
 12 48  1  0  0  0  0
 13 49  1  0  0  0  0
 24 50  1  0  0  0  0
 29 51  1  0  0  0  0
 29 52  1  0  0  0  0
 29 53  1  0  0  0  0
 30 54  1  0  0  0  0
 30 55  1  0  0  0  0
 30 56  1  0  0  0  0
M  END
> <r_user_dG.exp>
-9.882

$$$$
29
  -OEChem-05162309453D
 Structure written by MMmdl.
 56 59  0     0  0  0  0  0  0999 V2000
    1.3901   29.1077    6.7935 C   0  0  0  0  0  0  0  0  0  0  0  0
   -1.6911   31.9130    8.0794 C   0  0  0  0  0  0  0  0  0  0  0  0
   -0.7437   26.3748    8.8319 C   0  0  0  0  0  0  0  0  0  0  0  0
   -1.3142   25.5567    9.9914 C   0  0  0  0  0  0  0  0  0  0  0  0
   -1.1214   24.0589    9.6854 C   0  0  0  0  0  0  0  0  0  0  0  0
   -1.5824   23.1795   10.8502 C   0  0  0  0  0  0  0  0  0  0  0  0
   -0.8551   23.5463   12.1491 C   0  0  0  0  0  0  0  0  0  0  0  0
   -1.0780   25.0277   12.4857 C   0  0  0  0  0  0  0  0  0  0  0  0
   -0.6321   25.9351   11.3273 C   0  0  0  0  0  0  0  0  0  0  0  0
    4.6903   25.7129    5.8380 C   0  0  0  0  0  0  0  0  0  0  0  0
    4.6667   25.1395    7.1233 C   0  0  0  0  0  0  0  0  0  0  0  0
    3.9496   25.7658    8.1576 C   0  0  0  0  0  0  0  0  0  0  0  0
    3.2460   26.9556    7.8985 C   0  0  0  0  0  0  0  0  0  0  0  0
    0.6302   28.2313    7.4508 N   0  0  0  0  0  0  0  0  0  0  0  0
   -0.4898   28.6252    8.0923 C   0  0  0  0  0  0  0  0  0  0  0  0
   -1.1796   27.7315    8.8832 O   0  0  0  0  0  0  0  0  0  0  0  0
   -0.8660   29.9818    8.0000 C   0  0  0  0  0  0  0  0  0  0  0  0
   -1.9251   30.7129    8.5212 N   0  0  0  0  0  0  0  0  0  0  0  0
   -0.5542   32.0464    7.3306 N   0  0  0  0  0  0  0  0  0  0  0  0
   -0.0249   30.7863    7.2610 C   0  0  0  0  0  0  0  0  0  0  0  0
    1.1172   30.4049    6.6113 N   0  0  0  0  0  0  0  0  0  0  0  0
    2.5827   28.6807    6.3360 N   0  0  0  0  0  0  0  0  0  0  0  0
    3.2365   27.5251    6.6032 C   0  0  0  0  0  0  0  0  0  0  0  0
    3.9871   26.9068    5.5819 C   0  0  0  0  0  0  0  0  0  0  0  0
    5.4311   23.8790    7.4001 S   0  0  0  0  0  0  0  0  0  0  0  0
    5.8108   23.2938    6.1199 O   0  0  0  0  0  0  0  0  0  0  0  0
    6.4234   24.1721    8.4274 O   0  0  0  0  0  0  0  0  0  0  0  0
    4.4921   22.8906    8.0257 N   0  0  0  0  0  0  0  0  0  0  0  0
    3.8604   21.8742    7.2087 C   0  0  0  0  0  0  0  0  0  0  0  0
    4.2167   22.9522    9.4469 C   0  0  0  0  0  0  0  0  0  0  0  0
   -2.5456   32.2197    7.4583 H   0  0  0  0  0  0  0  0  0  0  0  0
   -1.6083   32.5848    8.9465 H   0  0  0  0  0  0  0  0  0  0  0  0
    0.3548   26.3504    8.8841 H   0  0  0  0  0  0  0  0  0  0  0  0
   -1.0756   25.9287    7.8828 H   0  0  0  0  0  0  0  0  0  0  0  0
   -2.3913   25.7635   10.0760 H   0  0  0  0  0  0  0  0  0  0  0  0
   -1.7056   23.7998    8.7901 H   0  0  0  0  0  0  0  0  0  0  0  0
   -0.0549   23.8683    9.4951 H   0  0  0  0  0  0  0  0  0  0  0  0
   -2.6643   23.3154   10.9950 H   0  0  0  0  0  0  0  0  0  0  0  0
   -1.3742   22.1268   10.6083 H   0  0  0  0  0  0  0  0  0  0  0  0
   -1.2434   22.9254   12.9699 H   0  0  0  0  0  0  0  0  0  0  0  0
    0.2221   23.3603   12.0266 H   0  0  0  0  0  0  0  0  0  0  0  0
   -2.1477   25.1942   12.6804 H   0  0  0  0  0  0  0  0  0  0  0  0
   -0.4976   25.2825   13.3847 H   0  0  0  0  0  0  0  0  0  0  0  0
    0.4575   25.8452   11.2064 H   0  0  0  0  0  0  0  0  0  0  0  0
   -0.8891   26.9759   11.5737 H   0  0  0  0  0  0  0  0  0  0  0  0
    5.2489   25.2365    5.0459 H   0  0  0  0  0  0  0  0  0  0  0  0
    3.9391   25.3347    9.1478 H   0  0  0  0  0  0  0  0  0  0  0  0
    2.7061   27.4407    8.6982 H   0  0  0  0  0  0  0  0  0  0  0  0
    4.7300   27.6448    5.2450 H   0  0  0  0  0  0  0  0  0  0  0  0
    3.2866   26.6910    4.7617 H   0  0  0  0  0  0  0  0  0  0  0  0
    3.2118   21.2476    7.8385 H   0  0  0  0  0  0  0  0  0  0  0  0
    3.2563   22.3563    6.4260 H   0  0  0  0  0  0  0  0  0  0  0  0
    4.6336   21.2471    6.7409 H   0  0  0  0  0  0  0  0  0  0  0  0
    3.5112   22.1534    9.7192 H   0  0  0  0  0  0  0  0  0  0  0  0
    5.1537   22.8206   10.0079 H   0  0  0  0  0  0  0  0  0  0  0  0
    3.7763   23.9297    9.6929 H   0  0  0  0  0  0  0  0  0  0  0  0
  1 14  1  0  0  0  0
  1 21  2  0  0  0  0
  1 22  1  0  0  0  0
  2 18  1  0  0  0  0
  2 19  1  0  0  0  0
  3  4  1  0  0  0  0
  3 16  1  0  0  0  0
  4  5  1  0  0  0  0
  4  9  1  0  0  0  0
  5  6  1  0  0  0  0
  6  7  1  0  0  0  0
  7  8  1  0  0  0  0
  8  9  1  0  0  0  0
 10 11  2  0  0  0  0
 10 24  1  0  0  0  0
 11 12  1  0  0  0  0
 11 25  1  0  0  0  0
 12 13  2  0  0  0  0
 13 23  1  0  0  0  0
 14 15  2  0  0  0  0
 15 16  1  0  0  0  0
 15 17  1  0  0  0  0
 17 18  2  0  0  0  0
 17 20  1  0  0  0  0
 19 20  2  0  0  0  0
 20 21  1  0  0  0  0
 22 23  2  3  0  0  0
 23 24  1  0  0  0  0
 25 26  2  0  0  0  0
 25 27  2  0  0  0  0
 25 28  1  0  0  0  0
 28 29  1  0  0  0  0
 28 30  1  0  0  0  0
  2 31  1  0  0  0  0
  2 32  1  0  0  0  0
  3 33  1  0  0  0  0
  3 34  1  0  0  0  0
  4 35  1  0  0  0  0
  5 36  1  0  0  0  0
  5 37  1  0  0  0  0
  6 38  1  0  0  0  0
  6 39  1  0  0  0  0
  7 40  1  0  0  0  0
  7 41  1  0  0  0  0
  8 42  1  0  0  0  0
  8 43  1  0  0  0  0
  9 44  1  0  0  0  0
  9 45  1  0  0  0  0
 10 46  1  0  0  0  0
 12 47  1  0  0  0  0
 13 48  1  0  0  0  0
 24 49  1  0  0  0  0
 24 50  1  0  0  0  0
 29 51  1  0  0  0  0
 29 52  1  0  0  0  0
 29 53  1  0  0  0  0
 30 54  1  0  0  0  0
 30 55  1  0  0  0  0
 30 56  1  0  0  0  0
M  END
> <r_user_dG.exp>
-9.882

$$$$
29
  -OEChem-05162309453D
 Structure written by MMmdl.
 56 59  0     0  0  0  0  0  0999 V2000
    1.3901   29.1077    6.7935 C   0  0  0  0  0  0  0  0  0  0  0  0
   -1.6911   31.9130    8.0794 C   0  0  0  0  0  0  0  0  0  0  0  0
   -0.7437   26.3748    8.8319 C   0  0  0  0  0  0  0  0  0  0  0  0
   -1.3142   25.5567    9.9914 C   0  0  0  0  0  0  0  0  0  0  0  0
   -1.1214   24.0589    9.6854 C   0  0  0  0  0  0  0  0  0  0  0  0
   -1.5824   23.1795   10.8502 C   0  0  0  0  0  0  0  0  0  0  0  0
   -0.8551   23.5463   12.1491 C   0  0  0  0  0  0  0  0  0  0  0  0
   -1.0780   25.0277   12.4857 C   0  0  0  0  0  0  0  0  0  0  0  0
   -0.6321   25.9351   11.3273 C   0  0  0  0  0  0  0  0  0  0  0  0
    4.6903   25.7129    5.8380 C   0  0  0  0  0  0  0  0  0  0  0  0
    4.6667   25.1395    7.1233 C   0  0  0  0  0  0  0  0  0  0  0  0
    3.9496   25.7658    8.1576 C   0  0  0  0  0  0  0  0  0  0  0  0
    3.2460   26.9556    7.8985 C   0  0  0  0  0  0  0  0  0  0  0  0
    0.6302   28.2313    7.4508 N   0  0  0  0  0  0  0  0  0  0  0  0
   -0.4898   28.6252    8.0923 C   0  0  0  0  0  0  0  0  0  0  0  0
   -1.1796   27.7315    8.8832 O   0  0  0  0  0  0  0  0  0  0  0  0
   -0.8660   29.9818    8.0000 C   0  0  0  0  0  0  0  0  0  0  0  0
   -1.9251   30.7129    8.5212 N   0  0  0  0  0  0  0  0  0  0  0  0
   -0.5542   32.0464    7.3306 N   0  0  0  0  0  0  0  0  0  0  0  0
   -0.0249   30.7863    7.2610 C   0  0  0  0  0  0  0  0  0  0  0  0
    1.1172   30.4049    6.6113 N   0  0  0  0  0  0  0  0  0  0  0  0
    2.5827   28.6807    6.3360 N   0  0  0  0  0  0  0  0  0  0  0  0
    3.2365   27.5251    6.6032 C   0  0  0  0  0  0  0  0  0  0  0  0
    3.9871   26.9068    5.5819 C   0  0  0  0  0  0  0  0  0  0  0  0
    5.4311   23.8790    7.4001 S   0  0  0  0  0  0  0  0  0  0  0  0
    5.8108   23.2938    6.1199 O   0  0  0  0  0  0  0  0  0  0  0  0
    6.4234   24.1721    8.4274 O   0  0  0  0  0  0  0  0  0  0  0  0
    4.4921   22.8906    8.0257 N   0  0  0  0  0  0  0  0  0  0  0  0
    3.8604   21.8742    7.2087 C   0  0  0  0  0  0  0  0  0  0  0  0
    4.2167   22.9522    9.4469 C   0  0  0  0  0  0  0  0  0  0  0  0
   -2.3473   32.7449    8.2886 H   0  0  0  0  0  0  0  0  0  0  0  0
    0.3548   26.3504    8.8841 H   0  0  0  0  0  0  0  0  0  0  0  0
   -1.0756   25.9287    7.8828 H   0  0  0  0  0  0  0  0  0  0  0  0
   -2.3913   25.7635   10.0760 H   0  0  0  0  0  0  0  0  0  0  0  0
   -1.7056   23.7998    8.7901 H   0  0  0  0  0  0  0  0  0  0  0  0
   -0.0549   23.8683    9.4951 H   0  0  0  0  0  0  0  0  0  0  0  0
   -2.6643   23.3154   10.9950 H   0  0  0  0  0  0  0  0  0  0  0  0
   -1.3742   22.1268   10.6083 H   0  0  0  0  0  0  0  0  0  0  0  0
   -1.2434   22.9254   12.9699 H   0  0  0  0  0  0  0  0  0  0  0  0
    0.2221   23.3603   12.0266 H   0  0  0  0  0  0  0  0  0  0  0  0
   -2.1477   25.1942   12.6804 H   0  0  0  0  0  0  0  0  0  0  0  0
   -0.4976   25.2825   13.3847 H   0  0  0  0  0  0  0  0  0  0  0  0
    0.4575   25.8452   11.2064 H   0  0  0  0  0  0  0  0  0  0  0  0
   -0.8891   26.9759   11.5737 H   0  0  0  0  0  0  0  0  0  0  0  0
    5.2489   25.2365    5.0459 H   0  0  0  0  0  0  0  0  0  0  0  0
    3.7780   24.5503    6.8530 H   0  0  0  0  0  0  0  0  0  0  0  0
    3.9391   25.3347    9.1478 H   0  0  0  0  0  0  0  0  0  0  0  0
    2.7061   27.4407    8.6982 H   0  0  0  0  0  0  0  0  0  0  0  0
    2.3476   26.9370    6.3312 H   0  0  0  0  0  0  0  0  0  0  0  0
    4.0232   27.3508    4.5981 H   0  0  0  0  0  0  0  0  0  0  0  0
    3.2118   21.2476    7.8385 H   0  0  0  0  0  0  0  0  0  0  0  0
    3.2563   22.3563    6.4260 H   0  0  0  0  0  0  0  0  0  0  0  0
    4.6336   21.2471    6.7409 H   0  0  0  0  0  0  0  0  0  0  0  0
    3.5112   22.1534    9.7192 H   0  0  0  0  0  0  0  0  0  0  0  0
    5.1537   22.8206   10.0079 H   0  0  0  0  0  0  0  0  0  0  0  0
    3.7763   23.9297    9.6929 H   0  0  0  0  0  0  0  0  0  0  0  0
  1 14  1  0  0  0  0
  1 21  1  0  0  0  0
  1 22  2  0  0  0  0
  2 18  1  0  0  0  0
  2 19  2  0  0  0  0
  3  4  1  0  0  0  0
  3 16  1  0  0  0  0
  4  5  1  0  0  0  0
  4  9  1  0  0  0  0
  5  6  1  0  0  0  0
  6  7  1  0  0  0  0
  7  8  1  0  0  0  0
  8  9  1  0  0  0  0
 10 11  1  0  0  0  0
 10 24  2  0  0  0  0
 11 12  1  0  0  0  0
 11 25  1  0  0  0  0
 12 13  2  0  0  0  0
 13 23  1  0  0  0  0
 14 15  2  0  0  0  0
 15 16  1  0  0  0  0
 15 17  1  0  0  0  0
 17 18  2  0  0  0  0
 17 20  1  0  0  0  0
 19 20  1  0  0  0  0
 20 21  2  0  0  0  0
 22 23  1  0  0  0  0
 23 24  1  0  0  0  0
 25 26  2  0  0  0  0
 25 27  2  0  0  0  0
 25 28  1  0  0  0  0
 28 29  1  0  0  0  0
 28 30  1  0  0  0  0
  2 31  1  0  0  0  0
  3 32  1  0  0  0  0
  3 33  1  0  0  0  0
  4 34  1  0  0  0  0
  5 35  1  0  0  0  0
  5 36  1  0  0  0  0
  6 37  1  0  0  0  0
  6 38  1  0  0  0  0
  7 39  1  0  0  0  0
  7 40  1  0  0  0  0
  8 41  1  0  0  0  0
  8 42  1  0  0  0  0
  9 43  1  0  0  0  0
  9 44  1  0  0  0  0
 10 45  1  0  0  0  0
 11 46  1  0  0  0  0
 12 47  1  0  0  0  0
 13 48  1  0  0  0  0
 23 49  1  0  0  0  0
 24 50  1  0  0  0  0
 29 51  1  0  0  0  0
 29 52  1  0  0  0  0
 29 53  1  0  0  0  0
 30 54  1  0  0  0  0
 30 55  1  0  0  0  0
 30 56  1  0  0  0  0
M  END
> <r_user_dG.exp>
-9.882

$$$$
29
  -OEChem-05162309453D
 Structure written by MMmdl.
 56 59  0     1  0  0  0  0  0999 V2000
    1.3901   29.1077    6.7935 C   0  0  0  0  0  0  0  0  0  0  0  0
   -1.6911   31.9130    8.0794 C   0  0  0  0  0  0  0  0  0  0  0  0
   -0.7437   26.3748    8.8319 C   0  0  0  0  0  0  0  0  0  0  0  0
   -1.3142   25.5567    9.9914 C   0  0  0  0  0  0  0  0  0  0  0  0
   -1.1214   24.0589    9.6854 C   0  0  0  0  0  0  0  0  0  0  0  0
   -1.5824   23.1795   10.8502 C   0  0  0  0  0  0  0  0  0  0  0  0
   -0.8551   23.5463   12.1491 C   0  0  0  0  0  0  0  0  0  0  0  0
   -1.0780   25.0277   12.4857 C   0  0  0  0  0  0  0  0  0  0  0  0
   -0.6321   25.9351   11.3273 C   0  0  0  0  0  0  0  0  0  0  0  0
    4.6903   25.7129    5.8380 C   0  0  0  0  0  0  0  0  0  0  0  0
    4.6667   25.1395    7.1233 C   0  0  0  0  0  0  0  0  0  0  0  0
    3.9496   25.7658    8.1576 C   0  0  0  0  0  0  0  0  0  0  0  0
    3.2460   26.9556    7.8985 C   0  0  0  0  0  0  0  0  0  0  0  0
    0.6302   28.2313    7.4508 N   0  0  0  0  0  0  0  0  0  0  0  0
   -0.4898   28.6252    8.0923 C   0  0  0  0  0  0  0  0  0  0  0  0
   -1.1796   27.7315    8.8832 O   0  0  0  0  0  0  0  0  0  0  0  0
   -0.8660   29.9818    8.0000 C   0  0  3  0  0  0  0  0  0  0  0  0
   -1.9251   30.7129    8.5212 N   0  0  0  0  0  0  0  0  0  0  0  0
   -0.5542   32.0464    7.3306 N   0  0  0  0  0  0  0  0  0  0  0  0
   -0.0249   30.7863    7.2610 C   0  0  0  0  0  0  0  0  0  0  0  0
    1.1172   30.4049    6.6113 N   0  0  0  0  0  0  0  0  0  0  0  0
    2.5827   28.6807    6.3360 N   0  0  0  0  0  0  0  0  0  0  0  0
    3.2365   27.5251    6.6032 C   0  0  0  0  0  0  0  0  0  0  0  0
    3.9871   26.9068    5.5819 C   0  0  0  0  0  0  0  0  0  0  0  0
    5.4311   23.8790    7.4001 S   0  0  0  0  0  0  0  0  0  0  0  0
    5.8108   23.2938    6.1199 O   0  0  0  0  0  0  0  0  0  0  0  0
    6.4234   24.1721    8.4274 O   0  0  0  0  0  0  0  0  0  0  0  0
    4.4921   22.8906    8.0257 N   0  0  0  0  0  0  0  0  0  0  0  0
    3.8604   21.8742    7.2087 C   0  0  0  0  0  0  0  0  0  0  0  0
    4.2167   22.9522    9.4469 C   0  0  0  0  0  0  0  0  0  0  0  0
   -2.3473   32.7449    8.2886 H   0  0  0  0  0  0  0  0  0  0  0  0
    0.3548   26.3504    8.8841 H   0  0  0  0  0  0  0  0  0  0  0  0
   -1.0756   25.9287    7.8828 H   0  0  0  0  0  0  0  0  0  0  0  0
   -2.3913   25.7635   10.0760 H   0  0  0  0  0  0  0  0  0  0  0  0
   -1.7056   23.7998    8.7901 H   0  0  0  0  0  0  0  0  0  0  0  0
   -0.0549   23.8683    9.4951 H   0  0  0  0  0  0  0  0  0  0  0  0
   -2.6643   23.3154   10.9950 H   0  0  0  0  0  0  0  0  0  0  0  0
   -1.3742   22.1268   10.6083 H   0  0  0  0  0  0  0  0  0  0  0  0
   -1.2434   22.9254   12.9699 H   0  0  0  0  0  0  0  0  0  0  0  0
    0.2221   23.3603   12.0266 H   0  0  0  0  0  0  0  0  0  0  0  0
   -2.1477   25.1942   12.6804 H   0  0  0  0  0  0  0  0  0  0  0  0
   -0.4976   25.2825   13.3847 H   0  0  0  0  0  0  0  0  0  0  0  0
    0.4575   25.8452   11.2064 H   0  0  0  0  0  0  0  0  0  0  0  0
   -0.8891   26.9759   11.5737 H   0  0  0  0  0  0  0  0  0  0  0  0
    5.2489   25.2365    5.0459 H   0  0  0  0  0  0  0  0  0  0  0  0
    3.7780   24.5503    6.8530 H   0  0  0  0  0  0  0  0  0  0  0  0
    3.9391   25.3347    9.1478 H   0  0  0  0  0  0  0  0  0  0  0  0
    2.7061   27.4407    8.6982 H   0  0  0  0  0  0  0  0  0  0  0  0
   -1.4557   29.7617    7.0979 H   0  0  0  0  0  0  0  0  0  0  0  0
    4.0232   27.3508    4.5981 H   0  0  0  0  0  0  0  0  0  0  0  0
    3.2118   21.2476    7.8385 H   0  0  0  0  0  0  0  0  0  0  0  0
    3.2563   22.3563    6.4260 H   0  0  0  0  0  0  0  0  0  0  0  0
    4.6336   21.2471    6.7409 H   0  0  0  0  0  0  0  0  0  0  0  0
    3.5112   22.1534    9.7192 H   0  0  0  0  0  0  0  0  0  0  0  0
    5.1537   22.8206   10.0079 H   0  0  0  0  0  0  0  0  0  0  0  0
    3.7763   23.9297    9.6929 H   0  0  0  0  0  0  0  0  0  0  0  0
  1 14  1  0  0  0  0
  1 21  2  0  0  0  0
  1 22  1  0  0  0  0
  2 18  2  0  0  0  0
  2 19  1  0  0  0  0
  3  4  1  0  0  0  0
  3 16  1  0  0  0  0
  4  5  1  0  0  0  0
  4  9  1  0  0  0  0
  5  6  1  0  0  0  0
  6  7  1  0  0  0  0
  7  8  1  0  0  0  0
  8  9  1  0  0  0  0
 10 11  1  0  0  0  0
 10 24  2  0  0  0  0
 11 12  1  0  0  0  0
 11 25  1  0  0  0  0
 12 13  2  0  0  0  0
 13 23  1  0  0  0  0
 14 15  2  0  0  0  0
 15 16  1  0  0  0  0
 15 17  1  0  0  0  0
 17 18  1  0  0  0  0
 17 20  1  0  0  0  0
 19 20  2  0  0  0  0
 20 21  1  0  0  0  0
 22 23  2  0  0  0  0
 23 24  1  0  0  0  0
 25 26  2  0  0  0  0
 25 27  2  0  0  0  0
 25 28  1  0  0  0  0
 28 29  1  0  0  0  0
 28 30  1  0  0  0  0
  2 31  1  0  0  0  0
  3 32  1  0  0  0  0
  3 33  1  0  0  0  0
  4 34  1  0  0  0  0
  5 35  1  0  0  0  0
  5 36  1  0  0  0  0
  6 37  1  0  0  0  0
  6 38  1  0  0  0  0
  7 39  1  0  0  0  0
  7 40  1  0  0  0  0
  8 41  1  0  0  0  0
  8 42  1  0  0  0  0
  9 43  1  0  0  0  0
  9 44  1  0  0  0  0
 10 45  1  0  0  0  0
 11 46  1  0  0  0  0
 12 47  1  0  0  0  0
 13 48  1  0  0  0  0
 17 49  1  0  0  0  0
 24 50  1  0  0  0  0
 29 51  1  0  0  0  0
 29 52  1  0  0  0  0
 29 53  1  0  0  0  0
 30 54  1  0  0  0  0
 30 55  1  0  0  0  0
 30 56  1  0  0  0  0
M  END
> <r_user_dG.exp>
-9.882

$$$$
29
  -OEChem-05162309453D
 Structure written by MMmdl.
 56 59  0     1  0  0  0  0  0999 V2000
    1.3901   29.1077    6.7935 C   0  0  0  0  0  0  0  0  0  0  0  0
   -1.6911   31.9130    8.0794 C   0  0  0  0  0  0  0  0  0  0  0  0
   -0.7437   26.3748    8.8319 C   0  0  0  0  0  0  0  0  0  0  0  0
   -1.3142   25.5567    9.9914 C   0  0  0  0  0  0  0  0  0  0  0  0
   -1.1214   24.0589    9.6854 C   0  0  0  0  0  0  0  0  0  0  0  0
   -1.5824   23.1795   10.8502 C   0  0  0  0  0  0  0  0  0  0  0  0
   -0.8551   23.5463   12.1491 C   0  0  0  0  0  0  0  0  0  0  0  0
   -1.0780   25.0277   12.4857 C   0  0  0  0  0  0  0  0  0  0  0  0
   -0.6321   25.9351   11.3273 C   0  0  0  0  0  0  0  0  0  0  0  0
    4.6903   25.7129    5.8380 C   0  0  0  0  0  0  0  0  0  0  0  0
    4.6667   25.1395    7.1233 C   0  0  0  0  0  0  0  0  0  0  0  0
    3.9496   25.7658    8.1576 C   0  0  0  0  0  0  0  0  0  0  0  0
    3.2460   26.9556    7.8985 C   0  0  0  0  0  0  0  0  0  0  0  0
    0.6302   28.2313    7.4508 N   0  0  0  0  0  0  0  0  0  0  0  0
   -0.4898   28.6252    8.0923 C   0  0  0  0  0  0  0  0  0  0  0  0
   -1.1796   27.7315    8.8832 O   0  0  0  0  0  0  0  0  0  0  0  0
   -0.8660   29.9818    8.0000 C   0  0  0  0  0  0  0  0  0  0  0  0
   -1.9251   30.7129    8.5212 N   0  0  0  0  0  0  0  0  0  0  0  0
   -0.5542   32.0464    7.3306 N   0  0  0  0  0  0  0  0  0  0  0  0
   -0.0249   30.7863    7.2610 C   0  0  3  0  0  0  0  0  0  0  0  0
    1.1172   30.4049    6.6113 N   0  0  0  0  0  0  0  0  0  0  0  0
    2.5827   28.6807    6.3360 N   0  0  0  0  0  0  0  0  0  0  0  0
    3.2365   27.5251    6.6032 C   0  0  0  0  0  0  0  0  0  0  0  0
    3.9871   26.9068    5.5819 C   0  0  0  0  0  0  0  0  0  0  0  0
    5.4311   23.8790    7.4001 S   0  0  0  0  0  0  0  0  0  0  0  0
    5.8108   23.2938    6.1199 O   0  0  0  0  0  0  0  0  0  0  0  0
    6.4234   24.1721    8.4274 O   0  0  0  0  0  0  0  0  0  0  0  0
    4.4921   22.8906    8.0257 N   0  0  0  0  0  0  0  0  0  0  0  0
    3.8604   21.8742    7.2087 C   0  0  0  0  0  0  0  0  0  0  0  0
    4.2167   22.9522    9.4469 C   0  0  0  0  0  0  0  0  0  0  0  0
   -2.3473   32.7449    8.2886 H   0  0  0  0  0  0  0  0  0  0  0  0
    0.3548   26.3504    8.8841 H   0  0  0  0  0  0  0  0  0  0  0  0
   -1.0756   25.9287    7.8828 H   0  0  0  0  0  0  0  0  0  0  0  0
   -2.3913   25.7635   10.0760 H   0  0  0  0  0  0  0  0  0  0  0  0
   -1.7056   23.7998    8.7901 H   0  0  0  0  0  0  0  0  0  0  0  0
   -0.0549   23.8683    9.4951 H   0  0  0  0  0  0  0  0  0  0  0  0
   -2.6643   23.3154   10.9950 H   0  0  0  0  0  0  0  0  0  0  0  0
   -1.3742   22.1268   10.6083 H   0  0  0  0  0  0  0  0  0  0  0  0
   -1.2434   22.9254   12.9699 H   0  0  0  0  0  0  0  0  0  0  0  0
    0.2221   23.3603   12.0266 H   0  0  0  0  0  0  0  0  0  0  0  0
   -2.1477   25.1942   12.6804 H   0  0  0  0  0  0  0  0  0  0  0  0
   -0.4976   25.2825   13.3847 H   0  0  0  0  0  0  0  0  0  0  0  0
    0.4575   25.8452   11.2064 H   0  0  0  0  0  0  0  0  0  0  0  0
   -0.8891   26.9759   11.5737 H   0  0  0  0  0  0  0  0  0  0  0  0
    5.2489   25.2365    5.0459 H   0  0  0  0  0  0  0  0  0  0  0  0
    3.7780   24.5503    6.8530 H   0  0  0  0  0  0  0  0  0  0  0  0
    3.9391   25.3347    9.1478 H   0  0  0  0  0  0  0  0  0  0  0  0
    2.7061   27.4407    8.6982 H   0  0  0  0  0  0  0  0  0  0  0  0
   -0.6153   30.5819    6.3556 H   0  0  0  0  0  0  0  0  0  0  0  0
    4.0232   27.3508    4.5981 H   0  0  0  0  0  0  0  0  0  0  0  0
    3.2118   21.2476    7.8385 H   0  0  0  0  0  0  0  0  0  0  0  0
    3.2563   22.3563    6.4260 H   0  0  0  0  0  0  0  0  0  0  0  0
    4.6336   21.2471    6.7409 H   0  0  0  0  0  0  0  0  0  0  0  0
    3.5112   22.1534    9.7192 H   0  0  0  0  0  0  0  0  0  0  0  0
    5.1537   22.8206   10.0079 H   0  0  0  0  0  0  0  0  0  0  0  0
    3.7763   23.9297    9.6929 H   0  0  0  0  0  0  0  0  0  0  0  0
  1 14  1  0  0  0  0
  1 21  2  0  0  0  0
  1 22  1  0  0  0  0
  2 18  1  0  0  0  0
  2 19  2  0  0  0  0
  3  4  1  0  0  0  0
  3 16  1  0  0  0  0
  4  5  1  0  0  0  0
  4  9  1  0  0  0  0
  5  6  1  0  0  0  0
  6  7  1  0  0  0  0
  7  8  1  0  0  0  0
  8  9  1  0  0  0  0
 10 11  1  0  0  0  0
 10 24  2  0  0  0  0
 11 12  1  0  0  0  0
 11 25  1  0  0  0  0
 12 13  2  0  0  0  0
 13 23  1  0  0  0  0
 14 15  2  0  0  0  0
 15 16  1  0  0  0  0
 15 17  1  0  0  0  0
 17 18  2  0  0  0  0
 17 20  1  0  0  0  0
 19 20  1  0  0  0  0
 20 21  1  0  0  0  0
 22 23  2  0  0  0  0
 23 24  1  0  0  0  0
 25 26  2  0  0  0  0
 25 27  2  0  0  0  0
 25 28  1  0  0  0  0
 28 29  1  0  0  0  0
 28 30  1  0  0  0  0
  2 31  1  0  0  0  0
  3 32  1  0  0  0  0
  3 33  1  0  0  0  0
  4 34  1  0  0  0  0
  5 35  1  0  0  0  0
  5 36  1  0  0  0  0
  6 37  1  0  0  0  0
  6 38  1  0  0  0  0
  7 39  1  0  0  0  0
  7 40  1  0  0  0  0
  8 41  1  0  0  0  0
  8 42  1  0  0  0  0
  9 43  1  0  0  0  0
  9 44  1  0  0  0  0
 10 45  1  0  0  0  0
 11 46  1  0  0  0  0
 12 47  1  0  0  0  0
 13 48  1  0  0  0  0
 20 49  1  0  0  0  0
 24 50  1  0  0  0  0
 29 51  1  0  0  0  0
 29 52  1  0  0  0  0
 29 53  1  0  0  0  0
 30 54  1  0  0  0  0
 30 55  1  0  0  0  0
 30 56  1  0  0  0  0
M  END
> <r_user_dG.exp>
-9.882

$$$$
29
  -OEChem-05162309453D
 Structure written by MMmdl.
 56 59  0     1  0  0  0  0  0999 V2000
    1.3901   29.1077    6.7935 C   0  0  0  0  0  0  0  0  0  0  0  0
   -1.6911   31.9130    8.0794 C   0  0  0  0  0  0  0  0  0  0  0  0
   -0.7437   26.3748    8.8319 C   0  0  0  0  0  0  0  0  0  0  0  0
   -1.3142   25.5567    9.9914 C   0  0  0  0  0  0  0  0  0  0  0  0
   -1.1214   24.0589    9.6854 C   0  0  0  0  0  0  0  0  0  0  0  0
   -1.5824   23.1795   10.8502 C   0  0  0  0  0  0  0  0  0  0  0  0
   -0.8551   23.5463   12.1491 C   0  0  0  0  0  0  0  0  0  0  0  0
   -1.0780   25.0277   12.4857 C   0  0  0  0  0  0  0  0  0  0  0  0
   -0.6321   25.9351   11.3273 C   0  0  0  0  0  0  0  0  0  0  0  0
    4.6903   25.7129    5.8380 C   0  0  0  0  0  0  0  0  0  0  0  0
    4.6667   25.1395    7.1233 C   0  0  0  0  0  0  0  0  0  0  0  0
    3.9496   25.7658    8.1576 C   0  0  0  0  0  0  0  0  0  0  0  0
    3.2460   26.9556    7.8985 C   0  0  0  0  0  0  0  0  0  0  0  0
    0.6302   28.2313    7.4508 N   0  0  0  0  0  0  0  0  0  0  0  0
   -0.4898   28.6252    8.0923 C   0  0  3  0  0  0  0  0  0  0  0  0
   -1.1796   27.7315    8.8832 O   0  0  0  0  0  0  0  0  0  0  0  0
   -0.8660   29.9818    8.0000 C   0  0  0  0  0  0  0  0  0  0  0  0
   -1.9251   30.7129    8.5212 N   0  0  0  0  0  0  0  0  0  0  0  0
   -0.5542   32.0464    7.3306 N   0  0  0  0  0  0  0  0  0  0  0  0
   -0.0249   30.7863    7.2610 C   0  0  0  0  0  0  0  0  0  0  0  0
    1.1172   30.4049    6.6113 N   0  0  0  0  0  0  0  0  0  0  0  0
    2.5827   28.6807    6.3360 N   0  0  0  0  0  0  0  0  0  0  0  0
    3.2365   27.5251    6.6032 C   0  0  0  0  0  0  0  0  0  0  0  0
    3.9871   26.9068    5.5819 C   0  0  0  0  0  0  0  0  0  0  0  0
    5.4311   23.8790    7.4001 S   0  0  0  0  0  0  0  0  0  0  0  0
    5.8108   23.2938    6.1199 O   0  0  0  0  0  0  0  0  0  0  0  0
    6.4234   24.1721    8.4274 O   0  0  0  0  0  0  0  0  0  0  0  0
    4.4921   22.8906    8.0257 N   0  0  0  0  0  0  0  0  0  0  0  0
    3.8604   21.8742    7.2087 C   0  0  0  0  0  0  0  0  0  0  0  0
    4.2167   22.9522    9.4469 C   0  0  0  0  0  0  0  0  0  0  0  0
   -2.3473   32.7449    8.2886 H   0  0  0  0  0  0  0  0  0  0  0  0
    0.3548   26.3504    8.8841 H   0  0  0  0  0  0  0  0  0  0  0  0
   -1.0756   25.9287    7.8828 H   0  0  0  0  0  0  0  0  0  0  0  0
   -2.3913   25.7635   10.0760 H   0  0  0  0  0  0  0  0  0  0  0  0
   -1.7056   23.7998    8.7901 H   0  0  0  0  0  0  0  0  0  0  0  0
   -0.0549   23.8683    9.4951 H   0  0  0  0  0  0  0  0  0  0  0  0
   -2.6643   23.3154   10.9950 H   0  0  0  0  0  0  0  0  0  0  0  0
   -1.3742   22.1268   10.6083 H   0  0  0  0  0  0  0  0  0  0  0  0
   -1.2434   22.9254   12.9699 H   0  0  0  0  0  0  0  0  0  0  0  0
    0.2221   23.3603   12.0266 H   0  0  0  0  0  0  0  0  0  0  0  0
   -2.1477   25.1942   12.6804 H   0  0  0  0  0  0  0  0  0  0  0  0
   -0.4976   25.2825   13.3847 H   0  0  0  0  0  0  0  0  0  0  0  0
    0.4575   25.8452   11.2064 H   0  0  0  0  0  0  0  0  0  0  0  0
   -0.8891   26.9759   11.5737 H   0  0  0  0  0  0  0  0  0  0  0  0
    5.2489   25.2365    5.0459 H   0  0  0  0  0  0  0  0  0  0  0  0
    3.7780   24.5503    6.8530 H   0  0  0  0  0  0  0  0  0  0  0  0
    3.9391   25.3347    9.1478 H   0  0  0  0  0  0  0  0  0  0  0  0
    2.7061   27.4407    8.6982 H   0  0  0  0  0  0  0  0  0  0  0  0
   -1.1094   28.3692    7.2202 H   0  0  0  0  0  0  0  0  0  0  0  0
    4.0232   27.3508    4.5981 H   0  0  0  0  0  0  0  0  0  0  0  0
    3.2118   21.2476    7.8385 H   0  0  0  0  0  0  0  0  0  0  0  0
    3.2563   22.3563    6.4260 H   0  0  0  0  0  0  0  0  0  0  0  0
    4.6336   21.2471    6.7409 H   0  0  0  0  0  0  0  0  0  0  0  0
    3.5112   22.1534    9.7192 H   0  0  0  0  0  0  0  0  0  0  0  0
    5.1537   22.8206   10.0079 H   0  0  0  0  0  0  0  0  0  0  0  0
    3.7763   23.9297    9.6929 H   0  0  0  0  0  0  0  0  0  0  0  0
  1 14  2  0  0  0  0
  1 21  1  0  0  0  0
  1 22  1  0  0  0  0
  2 18  1  0  0  0  0
  2 19  2  0  0  0  0
  3  4  1  0  0  0  0
  3 16  1  0  0  0  0
  4  5  1  0  0  0  0
  4  9  1  0  0  0  0
  5  6  1  0  0  0  0
  6  7  1  0  0  0  0
  7  8  1  0  0  0  0
  8  9  1  0  0  0  0
 10 11  1  0  0  0  0
 10 24  2  0  0  0  0
 11 12  1  0  0  0  0
 11 25  1  0  0  0  0
 12 13  2  0  0  0  0
 13 23  1  0  0  0  0
 14 15  1  0  0  0  0
 15 16  1  0  0  0  0
 15 17  1  0  0  0  0
 17 18  2  0  0  0  0
 17 20  1  0  0  0  0
 19 20  1  0  0  0  0
 20 21  2  0  0  0  0
 22 23  2  0  0  0  0
 23 24  1  0  0  0  0
 25 26  2  0  0  0  0
 25 27  2  0  0  0  0
 25 28  1  0  0  0  0
 28 29  1  0  0  0  0
 28 30  1  0  0  0  0
  2 31  1  0  0  0  0
  3 32  1  0  0  0  0
  3 33  1  0  0  0  0
  4 34  1  0  0  0  0
  5 35  1  0  0  0  0
  5 36  1  0  0  0  0
  6 37  1  0  0  0  0
  6 38  1  0  0  0  0
  7 39  1  0  0  0  0
  7 40  1  0  0  0  0
  8 41  1  0  0  0  0
  8 42  1  0  0  0  0
  9 43  1  0  0  0  0
  9 44  1  0  0  0  0
 10 45  1  0  0  0  0
 11 46  1  0  0  0  0
 12 47  1  0  0  0  0
 13 48  1  0  0  0  0
 15 49  1  0  0  0  0
 24 50  1  0  0  0  0
 29 51  1  0  0  0  0
 29 52  1  0  0  0  0
 29 53  1  0  0  0  0
 30 54  1  0  0  0  0
 30 55  1  0  0  0  0
 30 56  1  0  0  0  0
M  END
> <r_user_dG.exp>
-9.882

$$$$
29
  -OEChem-05162309453D
 Structure written by MMmdl.
 56 59  0     1  0  0  0  0  0999 V2000
    1.3901   29.1077    6.7935 C   0  0  0  0  0  0  0  0  0  0  0  0
   -1.6911   31.9130    8.0794 C   0  0  0  0  0  0  0  0  0  0  0  0
   -0.7437   26.3748    8.8319 C   0  0  0  0  0  0  0  0  0  0  0  0
   -1.3142   25.5567    9.9914 C   0  0  0  0  0  0  0  0  0  0  0  0
   -1.1214   24.0589    9.6854 C   0  0  0  0  0  0  0  0  0  0  0  0
   -1.5824   23.1795   10.8502 C   0  0  0  0  0  0  0  0  0  0  0  0
   -0.8551   23.5463   12.1491 C   0  0  0  0  0  0  0  0  0  0  0  0
   -1.0780   25.0277   12.4857 C   0  0  0  0  0  0  0  0  0  0  0  0
   -0.6321   25.9351   11.3273 C   0  0  0  0  0  0  0  0  0  0  0  0
    4.6903   25.7129    5.8380 C   0  0  0  0  0  0  0  0  0  0  0  0
    4.6667   25.1395    7.1233 C   0  0  0  0  0  0  0  0  0  0  0  0
    3.9496   25.7658    8.1576 C   0  0  0  0  0  0  0  0  0  0  0  0
    3.2460   26.9556    7.8985 C   0  0  0  0  0  0  0  0  0  0  0  0
    0.6302   28.2313    7.4508 N   0  0  0  0  0  0  0  0  0  0  0  0
   -0.4898   28.6252    8.0923 C   0  0  0  0  0  0  0  0  0  0  0  0
   -1.1796   27.7315    8.8832 O   0  0  0  0  0  0  0  0  0  0  0  0
   -0.8660   29.9818    8.0000 C   0  0  0  0  0  0  0  0  0  0  0  0
   -1.9251   30.7129    8.5212 N   0  0  0  0  0  0  0  0  0  0  0  0
   -0.5542   32.0464    7.3306 N   0  0  0  0  0  0  0  0  0  0  0  0
   -0.0249   30.7863    7.2610 C   0  0  0  0  0  0  0  0  0  0  0  0
    1.1172   30.4049    6.6113 N   0  0  0  0  0  0  0  0  0  0  0  0
    2.5827   28.6807    6.3360 N   0  0  0  0  0  0  0  0  0  0  0  0
    3.2365   27.5251    6.6032 C   0  0  3  0  0  0  0  0  0  0  0  0
    3.9871   26.9068    5.5819 C   0  0  0  0  0  0  0  0  0  0  0  0
    5.4311   23.8790    7.4001 S   0  0  0  0  0  0  0  0  0  0  0  0
    5.8108   23.2938    6.1199 O   0  0  0  0  0  0  0  0  0  0  0  0
    6.4234   24.1721    8.4274 O   0  0  0  0  0  0  0  0  0  0  0  0
    4.4921   22.8906    8.0257 N   0  0  0  0  0  0  0  0  0  0  0  0
    3.8604   21.8742    7.2087 C   0  0  0  0  0  0  0  0  0  0  0  0
    4.2167   22.9522    9.4469 C   0  0  0  0  0  0  0  0  0  0  0  0
   -2.3473   32.7449    8.2886 H   0  0  0  0  0  0  0  0  0  0  0  0
    0.3548   26.3504    8.8841 H   0  0  0  0  0  0  0  0  0  0  0  0
   -1.0756   25.9287    7.8828 H   0  0  0  0  0  0  0  0  0  0  0  0
   -2.3913   25.7635   10.0760 H   0  0  0  0  0  0  0  0  0  0  0  0
   -1.7056   23.7998    8.7901 H   0  0  0  0  0  0  0  0  0  0  0  0
   -0.0549   23.8683    9.4951 H   0  0  0  0  0  0  0  0  0  0  0  0
   -2.6643   23.3154   10.9950 H   0  0  0  0  0  0  0  0  0  0  0  0
   -1.3742   22.1268   10.6083 H   0  0  0  0  0  0  0  0  0  0  0  0
   -1.2434   22.9254   12.9699 H   0  0  0  0  0  0  0  0  0  0  0  0
    0.2221   23.3603   12.0266 H   0  0  0  0  0  0  0  0  0  0  0  0
   -2.1477   25.1942   12.6804 H   0  0  0  0  0  0  0  0  0  0  0  0
   -0.4976   25.2825   13.3847 H   0  0  0  0  0  0  0  0  0  0  0  0
    0.4575   25.8452   11.2064 H   0  0  0  0  0  0  0  0  0  0  0  0
   -0.8891   26.9759   11.5737 H   0  0  0  0  0  0  0  0  0  0  0  0
    5.2489   25.2365    5.0459 H   0  0  0  0  0  0  0  0  0  0  0  0
    3.9391   25.3347    9.1478 H   0  0  0  0  0  0  0  0  0  0  0  0
    2.7061   27.4407    8.6982 H   0  0  0  0  0  0  0  0  0  0  0  0
    2.3476   26.9370    6.3312 H   0  0  0  0  0  0  0  0  0  0  0  0
    4.7300   27.6448    5.2450 H   0  0  0  0  0  0  0  0  0  0  0  0
    3.2866   26.6910    4.7617 H   0  0  0  0  0  0  0  0  0  0  0  0
    3.2118   21.2476    7.8385 H   0  0  0  0  0  0  0  0  0  0  0  0
    3.2563   22.3563    6.4260 H   0  0  0  0  0  0  0  0  0  0  0  0
    4.6336   21.2471    6.7409 H   0  0  0  0  0  0  0  0  0  0  0  0
    3.5112   22.1534    9.7192 H   0  0  0  0  0  0  0  0  0  0  0  0
    5.1537   22.8206   10.0079 H   0  0  0  0  0  0  0  0  0  0  0  0
    3.7763   23.9297    9.6929 H   0  0  0  0  0  0  0  0  0  0  0  0
  1 14  1  0  0  0  0
  1 21  1  0  0  0  0
  1 22  2  0  0  0  0
  2 18  1  0  0  0  0
  2 19  2  0  0  0  0
  3  4  1  0  0  0  0
  3 16  1  0  0  0  0
  4  5  1  0  0  0  0
  4  9  1  0  0  0  0
  5  6  1  0  0  0  0
  6  7  1  0  0  0  0
  7  8  1  0  0  0  0
  8  9  1  0  0  0  0
 10 11  2  0  0  0  0
 10 24  1  0  0  0  0
 11 12  1  0  0  0  0
 11 25  1  0  0  0  0
 12 13  2  0  0  0  0
 13 23  1  0  0  0  0
 14 15  2  0  0  0  0
 15 16  1  0  0  0  0
 15 17  1  0  0  0  0
 17 18  2  0  0  0  0
 17 20  1  0  0  0  0
 19 20  1  0  0  0  0
 20 21  2  0  0  0  0
 22 23  1  0  0  0  0
 23 24  1  0  0  0  0
 25 26  2  0  0  0  0
 25 27  2  0  0  0  0
 25 28  1  0  0  0  0
 28 29  1  0  0  0  0
 28 30  1  0  0  0  0
  2 31  1  0  0  0  0
  3 32  1  0  0  0  0
  3 33  1  0  0  0  0
  4 34  1  0  0  0  0
  5 35  1  0  0  0  0
  5 36  1  0  0  0  0
  6 37  1  0  0  0  0
  6 38  1  0  0  0  0
  7 39  1  0  0  0  0
  7 40  1  0  0  0  0
  8 41  1  0  0  0  0
  8 42  1  0  0  0  0
  9 43  1  0  0  0  0
  9 44  1  0  0  0  0
 10 45  1  0  0  0  0
 12 46  1  0  0  0  0
 13 47  1  0  0  0  0
 23 48  1  0  0  0  0
 24 49  1  0  0  0  0
 24 50  1  0  0  0  0
 29 51  1  0  0  0  0
 29 52  1  0  0  0  0
 29 53  1  0  0  0  0
 30 54  1  0  0  0  0
 30 55  1  0  0  0  0
 30 56  1  0  0  0  0
M  END
> <r_user_dG.exp>
-9.882

$$$$
29
  -OEChem-05162309453D
 Structure written by MMmdl.
 56 59  0     1  0  0  0  0  0999 V2000
    1.3901   29.1077    6.7935 C   0  0  0  0  0  0  0  0  0  0  0  0
   -1.6911   31.9130    8.0794 C   0  0  0  0  0  0  0  0  0  0  0  0
   -0.7437   26.3748    8.8319 C   0  0  0  0  0  0  0  0  0  0  0  0
   -1.3142   25.5567    9.9914 C   0  0  0  0  0  0  0  0  0  0  0  0
   -1.1214   24.0589    9.6854 C   0  0  0  0  0  0  0  0  0  0  0  0
   -1.5824   23.1795   10.8502 C   0  0  0  0  0  0  0  0  0  0  0  0
   -0.8551   23.5463   12.1491 C   0  0  0  0  0  0  0  0  0  0  0  0
   -1.0780   25.0277   12.4857 C   0  0  0  0  0  0  0  0  0  0  0  0
   -0.6321   25.9351   11.3273 C   0  0  0  0  0  0  0  0  0  0  0  0
    4.6903   25.7129    5.8380 C   0  0  0  0  0  0  0  0  0  0  0  0
    4.6667   25.1395    7.1233 C   0  0  0  0  0  0  0  0  0  0  0  0
    3.9496   25.7658    8.1576 C   0  0  0  0  0  0  0  0  0  0  0  0
    3.2460   26.9556    7.8985 C   0  0  0  0  0  0  0  0  0  0  0  0
    0.6302   28.2313    7.4508 N   0  0  0  0  0  0  0  0  0  0  0  0
   -0.4898   28.6252    8.0923 C   0  0  0  0  0  0  0  0  0  0  0  0
   -1.1796   27.7315    8.8832 O   0  0  0  0  0  0  0  0  0  0  0  0
   -0.8660   29.9818    8.0000 C   0  0  3  0  0  0  0  0  0  0  0  0
   -1.9251   30.7129    8.5212 N   0  0  0  0  0  0  0  0  0  0  0  0
   -0.5542   32.0464    7.3306 N   0  0  0  0  0  0  0  0  0  0  0  0
   -0.0249   30.7863    7.2610 C   0  0  0  0  0  0  0  0  0  0  0  0
    1.1172   30.4049    6.6113 N   0  0  0  0  0  0  0  0  0  0  0  0
    2.5827   28.6807    6.3360 N   0  0  0  0  0  0  0  0  0  0  0  0
    3.2365   27.5251    6.6032 C   0  0  0  0  0  0  0  0  0  0  0  0
    3.9871   26.9068    5.5819 C   0  0  0  0  0  0  0  0  0  0  0  0
    5.4311   23.8790    7.4001 S   0  0  0  0  0  0  0  0  0  0  0  0
    5.8108   23.2938    6.1199 O   0  0  0  0  0  0  0  0  0  0  0  0
    6.4234   24.1721    8.4274 O   0  0  0  0  0  0  0  0  0  0  0  0
    4.4921   22.8906    8.0257 N   0  0  0  0  0  0  0  0  0  0  0  0
    3.8604   21.8742    7.2087 C   0  0  0  0  0  0  0  0  0  0  0  0
    4.2167   22.9522    9.4469 C   0  0  0  0  0  0  0  0  0  0  0  0
   -2.3473   32.7449    8.2886 H   0  0  0  0  0  0  0  0  0  0  0  0
    0.3548   26.3504    8.8841 H   0  0  0  0  0  0  0  0  0  0  0  0
   -1.0756   25.9287    7.8828 H   0  0  0  0  0  0  0  0  0  0  0  0
   -2.3913   25.7635   10.0760 H   0  0  0  0  0  0  0  0  0  0  0  0
   -1.7056   23.7998    8.7901 H   0  0  0  0  0  0  0  0  0  0  0  0
   -0.0549   23.8683    9.4951 H   0  0  0  0  0  0  0  0  0  0  0  0
   -2.6643   23.3154   10.9950 H   0  0  0  0  0  0  0  0  0  0  0  0
   -1.3742   22.1268   10.6083 H   0  0  0  0  0  0  0  0  0  0  0  0
   -1.2434   22.9254   12.9699 H   0  0  0  0  0  0  0  0  0  0  0  0
    0.2221   23.3603   12.0266 H   0  0  0  0  0  0  0  0  0  0  0  0
   -2.1477   25.1942   12.6804 H   0  0  0  0  0  0  0  0  0  0  0  0
   -0.4976   25.2825   13.3847 H   0  0  0  0  0  0  0  0  0  0  0  0
    0.4575   25.8452   11.2064 H   0  0  0  0  0  0  0  0  0  0  0  0
   -0.8891   26.9759   11.5737 H   0  0  0  0  0  0  0  0  0  0  0  0
    5.2489   25.2365    5.0459 H   0  0  0  0  0  0  0  0  0  0  0  0
    3.9391   25.3347    9.1478 H   0  0  0  0  0  0  0  0  0  0  0  0
    2.7061   27.4407    8.6982 H   0  0  0  0  0  0  0  0  0  0  0  0
   -1.4557   29.7617    7.0979 H   0  0  0  0  0  0  0  0  0  0  0  0
    4.7300   27.6448    5.2450 H   0  0  0  0  0  0  0  0  0  0  0  0
    3.2866   26.6910    4.7617 H   0  0  0  0  0  0  0  0  0  0  0  0
    3.2118   21.2476    7.8385 H   0  0  0  0  0  0  0  0  0  0  0  0
    3.2563   22.3563    6.4260 H   0  0  0  0  0  0  0  0  0  0  0  0
    4.6336   21.2471    6.7409 H   0  0  0  0  0  0  0  0  0  0  0  0
    3.5112   22.1534    9.7192 H   0  0  0  0  0  0  0  0  0  0  0  0
    5.1537   22.8206   10.0079 H   0  0  0  0  0  0  0  0  0  0  0  0
    3.7763   23.9297    9.6929 H   0  0  0  0  0  0  0  0  0  0  0  0
  1 14  1  0  0  0  0
  1 21  2  0  0  0  0
  1 22  1  0  0  0  0
  2 18  2  0  0  0  0
  2 19  1  0  0  0  0
  3  4  1  0  0  0  0
  3 16  1  0  0  0  0
  4  5  1  0  0  0  0
  4  9  1  0  0  0  0
  5  6  1  0  0  0  0
  6  7  1  0  0  0  0
  7  8  1  0  0  0  0
  8  9  1  0  0  0  0
 10 11  2  0  0  0  0
 10 24  1  0  0  0  0
 11 12  1  0  0  0  0
 11 25  1  0  0  0  0
 12 13  2  0  0  0  0
 13 23  1  0  0  0  0
 14 15  2  0  0  0  0
 15 16  1  0  0  0  0
 15 17  1  0  0  0  0
 17 18  1  0  0  0  0
 17 20  1  0  0  0  0
 19 20  2  0  0  0  0
 20 21  1  0  0  0  0
 22 23  2  3  0  0  0
 23 24  1  0  0  0  0
 25 26  2  0  0  0  0
 25 27  2  0  0  0  0
 25 28  1  0  0  0  0
 28 29  1  0  0  0  0
 28 30  1  0  0  0  0
  2 31  1  0  0  0  0
  3 32  1  0  0  0  0
  3 33  1  0  0  0  0
  4 34  1  0  0  0  0
  5 35  1  0  0  0  0
  5 36  1  0  0  0  0
  6 37  1  0  0  0  0
  6 38  1  0  0  0  0
  7 39  1  0  0  0  0
  7 40  1  0  0  0  0
  8 41  1  0  0  0  0
  8 42  1  0  0  0  0
  9 43  1  0  0  0  0
  9 44  1  0  0  0  0
 10 45  1  0  0  0  0
 12 46  1  0  0  0  0
 13 47  1  0  0  0  0
 17 48  1  0  0  0  0
 24 49  1  0  0  0  0
 24 50  1  0  0  0  0
 29 51  1  0  0  0  0
 29 52  1  0  0  0  0
 29 53  1  0  0  0  0
 30 54  1  0  0  0  0
 30 55  1  0  0  0  0
 30 56  1  0  0  0  0
M  END
> <r_user_dG.exp>
-9.882

$$$$
29
  -OEChem-05162309453D
 Structure written by MMmdl.
 56 59  0     1  0  0  0  0  0999 V2000
    1.3901   29.1077    6.7935 C   0  0  0  0  0  0  0  0  0  0  0  0
   -1.6911   31.9130    8.0794 C   0  0  0  0  0  0  0  0  0  0  0  0
   -0.7437   26.3748    8.8319 C   0  0  0  0  0  0  0  0  0  0  0  0
   -1.3142   25.5567    9.9914 C   0  0  0  0  0  0  0  0  0  0  0  0
   -1.1214   24.0589    9.6854 C   0  0  0  0  0  0  0  0  0  0  0  0
   -1.5824   23.1795   10.8502 C   0  0  0  0  0  0  0  0  0  0  0  0
   -0.8551   23.5463   12.1491 C   0  0  0  0  0  0  0  0  0  0  0  0
   -1.0780   25.0277   12.4857 C   0  0  0  0  0  0  0  0  0  0  0  0
   -0.6321   25.9351   11.3273 C   0  0  0  0  0  0  0  0  0  0  0  0
    4.6903   25.7129    5.8380 C   0  0  0  0  0  0  0  0  0  0  0  0
    4.6667   25.1395    7.1233 C   0  0  0  0  0  0  0  0  0  0  0  0
    3.9496   25.7658    8.1576 C   0  0  0  0  0  0  0  0  0  0  0  0
    3.2460   26.9556    7.8985 C   0  0  0  0  0  0  0  0  0  0  0  0
    0.6302   28.2313    7.4508 N   0  0  0  0  0  0  0  0  0  0  0  0
   -0.4898   28.6252    8.0923 C   0  0  0  0  0  0  0  0  0  0  0  0
   -1.1796   27.7315    8.8832 O   0  0  0  0  0  0  0  0  0  0  0  0
   -0.8660   29.9818    8.0000 C   0  0  0  0  0  0  0  0  0  0  0  0
   -1.9251   30.7129    8.5212 N   0  0  0  0  0  0  0  0  0  0  0  0
   -0.5542   32.0464    7.3306 N   0  0  0  0  0  0  0  0  0  0  0  0
   -0.0249   30.7863    7.2610 C   0  0  3  0  0  0  0  0  0  0  0  0
    1.1172   30.4049    6.6113 N   0  0  0  0  0  0  0  0  0  0  0  0
    2.5827   28.6807    6.3360 N   0  0  0  0  0  0  0  0  0  0  0  0
    3.2365   27.5251    6.6032 C   0  0  0  0  0  0  0  0  0  0  0  0
    3.9871   26.9068    5.5819 C   0  0  0  0  0  0  0  0  0  0  0  0
    5.4311   23.8790    7.4001 S   0  0  0  0  0  0  0  0  0  0  0  0
    5.8108   23.2938    6.1199 O   0  0  0  0  0  0  0  0  0  0  0  0
    6.4234   24.1721    8.4274 O   0  0  0  0  0  0  0  0  0  0  0  0
    4.4921   22.8906    8.0257 N   0  0  0  0  0  0  0  0  0  0  0  0
    3.8604   21.8742    7.2087 C   0  0  0  0  0  0  0  0  0  0  0  0
    4.2167   22.9522    9.4469 C   0  0  0  0  0  0  0  0  0  0  0  0
   -2.3473   32.7449    8.2886 H   0  0  0  0  0  0  0  0  0  0  0  0
    0.3548   26.3504    8.8841 H   0  0  0  0  0  0  0  0  0  0  0  0
   -1.0756   25.9287    7.8828 H   0  0  0  0  0  0  0  0  0  0  0  0
   -2.3913   25.7635   10.0760 H   0  0  0  0  0  0  0  0  0  0  0  0
   -1.7056   23.7998    8.7901 H   0  0  0  0  0  0  0  0  0  0  0  0
   -0.0549   23.8683    9.4951 H   0  0  0  0  0  0  0  0  0  0  0  0
   -2.6643   23.3154   10.9950 H   0  0  0  0  0  0  0  0  0  0  0  0
   -1.3742   22.1268   10.6083 H   0  0  0  0  0  0  0  0  0  0  0  0
   -1.2434   22.9254   12.9699 H   0  0  0  0  0  0  0  0  0  0  0  0
    0.2221   23.3603   12.0266 H   0  0  0  0  0  0  0  0  0  0  0  0
   -2.1477   25.1942   12.6804 H   0  0  0  0  0  0  0  0  0  0  0  0
   -0.4976   25.2825   13.3847 H   0  0  0  0  0  0  0  0  0  0  0  0
    0.4575   25.8452   11.2064 H   0  0  0  0  0  0  0  0  0  0  0  0
   -0.8891   26.9759   11.5737 H   0  0  0  0  0  0  0  0  0  0  0  0
    5.2489   25.2365    5.0459 H   0  0  0  0  0  0  0  0  0  0  0  0
    3.9391   25.3347    9.1478 H   0  0  0  0  0  0  0  0  0  0  0  0
    2.7061   27.4407    8.6982 H   0  0  0  0  0  0  0  0  0  0  0  0
   -0.6153   30.5819    6.3556 H   0  0  0  0  0  0  0  0  0  0  0  0
    4.7300   27.6448    5.2450 H   0  0  0  0  0  0  0  0  0  0  0  0
    3.2866   26.6910    4.7617 H   0  0  0  0  0  0  0  0  0  0  0  0
    3.2118   21.2476    7.8385 H   0  0  0  0  0  0  0  0  0  0  0  0
    3.2563   22.3563    6.4260 H   0  0  0  0  0  0  0  0  0  0  0  0
    4.6336   21.2471    6.7409 H   0  0  0  0  0  0  0  0  0  0  0  0
    3.5112   22.1534    9.7192 H   0  0  0  0  0  0  0  0  0  0  0  0
    5.1537   22.8206   10.0079 H   0  0  0  0  0  0  0  0  0  0  0  0
    3.7763   23.9297    9.6929 H   0  0  0  0  0  0  0  0  0  0  0  0
  1 14  1  0  0  0  0
  1 21  2  0  0  0  0
  1 22  1  0  0  0  0
  2 18  1  0  0  0  0
  2 19  2  0  0  0  0
  3  4  1  0  0  0  0
  3 16  1  0  0  0  0
  4  5  1  0  0  0  0
  4  9  1  0  0  0  0
  5  6  1  0  0  0  0
  6  7  1  0  0  0  0
  7  8  1  0  0  0  0
  8  9  1  0  0  0  0
 10 11  2  0  0  0  0
 10 24  1  0  0  0  0
 11 12  1  0  0  0  0
 11 25  1  0  0  0  0
 12 13  2  0  0  0  0
 13 23  1  0  0  0  0
 14 15  2  0  0  0  0
 15 16  1  0  0  0  0
 15 17  1  0  0  0  0
 17 18  2  0  0  0  0
 17 20  1  0  0  0  0
 19 20  1  0  0  0  0
 20 21  1  0  0  0  0
 22 23  2  3  0  0  0
 23 24  1  0  0  0  0
 25 26  2  0  0  0  0
 25 27  2  0  0  0  0
 25 28  1  0  0  0  0
 28 29  1  0  0  0  0
 28 30  1  0  0  0  0
  2 31  1  0  0  0  0
  3 32  1  0  0  0  0
  3 33  1  0  0  0  0
  4 34  1  0  0  0  0
  5 35  1  0  0  0  0
  5 36  1  0  0  0  0
  6 37  1  0  0  0  0
  6 38  1  0  0  0  0
  7 39  1  0  0  0  0
  7 40  1  0  0  0  0
  8 41  1  0  0  0  0
  8 42  1  0  0  0  0
  9 43  1  0  0  0  0
  9 44  1  0  0  0  0
 10 45  1  0  0  0  0
 12 46  1  0  0  0  0
 13 47  1  0  0  0  0
 20 48  1  0  0  0  0
 24 49  1  0  0  0  0
 24 50  1  0  0  0  0
 29 51  1  0  0  0  0
 29 52  1  0  0  0  0
 29 53  1  0  0  0  0
 30 54  1  0  0  0  0
 30 55  1  0  0  0  0
 30 56  1  0  0  0  0
M  END
> <r_user_dG.exp>
-9.882

$$$$
29
  -OEChem-05162309453D
 Structure written by MMmdl.
 56 59  0     1  0  0  0  0  0999 V2000
    1.3901   29.1077    6.7935 C   0  0  0  0  0  0  0  0  0  0  0  0
   -1.6911   31.9130    8.0794 C   0  0  0  0  0  0  0  0  0  0  0  0
   -0.7437   26.3748    8.8319 C   0  0  0  0  0  0  0  0  0  0  0  0
   -1.3142   25.5567    9.9914 C   0  0  0  0  0  0  0  0  0  0  0  0
   -1.1214   24.0589    9.6854 C   0  0  0  0  0  0  0  0  0  0  0  0
   -1.5824   23.1795   10.8502 C   0  0  0  0  0  0  0  0  0  0  0  0
   -0.8551   23.5463   12.1491 C   0  0  0  0  0  0  0  0  0  0  0  0
   -1.0780   25.0277   12.4857 C   0  0  0  0  0  0  0  0  0  0  0  0
   -0.6321   25.9351   11.3273 C   0  0  0  0  0  0  0  0  0  0  0  0
    4.6903   25.7129    5.8380 C   0  0  0  0  0  0  0  0  0  0  0  0
    4.6667   25.1395    7.1233 C   0  0  0  0  0  0  0  0  0  0  0  0
    3.9496   25.7658    8.1576 C   0  0  0  0  0  0  0  0  0  0  0  0
    3.2460   26.9556    7.8985 C   0  0  0  0  0  0  0  0  0  0  0  0
    0.6302   28.2313    7.4508 N   0  0  0  0  0  0  0  0  0  0  0  0
   -0.4898   28.6252    8.0923 C   0  0  3  0  0  0  0  0  0  0  0  0
   -1.1796   27.7315    8.8832 O   0  0  0  0  0  0  0  0  0  0  0  0
   -0.8660   29.9818    8.0000 C   0  0  0  0  0  0  0  0  0  0  0  0
   -1.9251   30.7129    8.5212 N   0  0  0  0  0  0  0  0  0  0  0  0
   -0.5542   32.0464    7.3306 N   0  0  0  0  0  0  0  0  0  0  0  0
   -0.0249   30.7863    7.2610 C   0  0  0  0  0  0  0  0  0  0  0  0
    1.1172   30.4049    6.6113 N   0  0  0  0  0  0  0  0  0  0  0  0
    2.5827   28.6807    6.3360 N   0  0  0  0  0  0  0  0  0  0  0  0
    3.2365   27.5251    6.6032 C   0  0  0  0  0  0  0  0  0  0  0  0
    3.9871   26.9068    5.5819 C   0  0  0  0  0  0  0  0  0  0  0  0
    5.4311   23.8790    7.4001 S   0  0  0  0  0  0  0  0  0  0  0  0
    5.8108   23.2938    6.1199 O   0  0  0  0  0  0  0  0  0  0  0  0
    6.4234   24.1721    8.4274 O   0  0  0  0  0  0  0  0  0  0  0  0
    4.4921   22.8906    8.0257 N   0  0  0  0  0  0  0  0  0  0  0  0
    3.8604   21.8742    7.2087 C   0  0  0  0  0  0  0  0  0  0  0  0
    4.2167   22.9522    9.4469 C   0  0  0  0  0  0  0  0  0  0  0  0
   -2.3473   32.7449    8.2886 H   0  0  0  0  0  0  0  0  0  0  0  0
    0.3548   26.3504    8.8841 H   0  0  0  0  0  0  0  0  0  0  0  0
   -1.0756   25.9287    7.8828 H   0  0  0  0  0  0  0  0  0  0  0  0
   -2.3913   25.7635   10.0760 H   0  0  0  0  0  0  0  0  0  0  0  0
   -1.7056   23.7998    8.7901 H   0  0  0  0  0  0  0  0  0  0  0  0
   -0.0549   23.8683    9.4951 H   0  0  0  0  0  0  0  0  0  0  0  0
   -2.6643   23.3154   10.9950 H   0  0  0  0  0  0  0  0  0  0  0  0
   -1.3742   22.1268   10.6083 H   0  0  0  0  0  0  0  0  0  0  0  0
   -1.2434   22.9254   12.9699 H   0  0  0  0  0  0  0  0  0  0  0  0
    0.2221   23.3603   12.0266 H   0  0  0  0  0  0  0  0  0  0  0  0
   -2.1477   25.1942   12.6804 H   0  0  0  0  0  0  0  0  0  0  0  0
   -0.4976   25.2825   13.3847 H   0  0  0  0  0  0  0  0  0  0  0  0
    0.4575   25.8452   11.2064 H   0  0  0  0  0  0  0  0  0  0  0  0
   -0.8891   26.9759   11.5737 H   0  0  0  0  0  0  0  0  0  0  0  0
    5.2489   25.2365    5.0459 H   0  0  0  0  0  0  0  0  0  0  0  0
    3.9391   25.3347    9.1478 H   0  0  0  0  0  0  0  0  0  0  0  0
    2.7061   27.4407    8.6982 H   0  0  0  0  0  0  0  0  0  0  0  0
   -1.1094   28.3692    7.2202 H   0  0  0  0  0  0  0  0  0  0  0  0
    4.7300   27.6448    5.2450 H   0  0  0  0  0  0  0  0  0  0  0  0
    3.2866   26.6910    4.7617 H   0  0  0  0  0  0  0  0  0  0  0  0
    3.2118   21.2476    7.8385 H   0  0  0  0  0  0  0  0  0  0  0  0
    3.2563   22.3563    6.4260 H   0  0  0  0  0  0  0  0  0  0  0  0
    4.6336   21.2471    6.7409 H   0  0  0  0  0  0  0  0  0  0  0  0
    3.5112   22.1534    9.7192 H   0  0  0  0  0  0  0  0  0  0  0  0
    5.1537   22.8206   10.0079 H   0  0  0  0  0  0  0  0  0  0  0  0
    3.7763   23.9297    9.6929 H   0  0  0  0  0  0  0  0  0  0  0  0
  1 14  2  0  0  0  0
  1 21  1  0  0  0  0
  1 22  1  0  0  0  0
  2 18  1  0  0  0  0
  2 19  2  0  0  0  0
  3  4  1  0  0  0  0
  3 16  1  0  0  0  0
  4  5  1  0  0  0  0
  4  9  1  0  0  0  0
  5  6  1  0  0  0  0
  6  7  1  0  0  0  0
  7  8  1  0  0  0  0
  8  9  1  0  0  0  0
 10 11  2  0  0  0  0
 10 24  1  0  0  0  0
 11 12  1  0  0  0  0
 11 25  1  0  0  0  0
 12 13  2  0  0  0  0
 13 23  1  0  0  0  0
 14 15  1  0  0  0  0
 15 16  1  0  0  0  0
 15 17  1  0  0  0  0
 17 18  2  0  0  0  0
 17 20  1  0  0  0  0
 19 20  1  0  0  0  0
 20 21  2  0  0  0  0
 22 23  2  3  0  0  0
 23 24  1  0  0  0  0
 25 26  2  0  0  0  0
 25 27  2  0  0  0  0
 25 28  1  0  0  0  0
 28 29  1  0  0  0  0
 28 30  1  0  0  0  0
  2 31  1  0  0  0  0
  3 32  1  0  0  0  0
  3 33  1  0  0  0  0
  4 34  1  0  0  0  0
  5 35  1  0  0  0  0
  5 36  1  0  0  0  0
  6 37  1  0  0  0  0
  6 38  1  0  0  0  0
  7 39  1  0  0  0  0
  7 40  1  0  0  0  0
  8 41  1  0  0  0  0
  8 42  1  0  0  0  0
  9 43  1  0  0  0  0
  9 44  1  0  0  0  0
 10 45  1  0  0  0  0
 12 46  1  0  0  0  0
 13 47  1  0  0  0  0
 15 48  1  0  0  0  0
 24 49  1  0  0  0  0
 24 50  1  0  0  0  0
 29 51  1  0  0  0  0
 29 52  1  0  0  0  0
 29 53  1  0  0  0  0
 30 54  1  0  0  0  0
 30 55  1  0  0  0  0
 30 56  1  0  0  0  0
M  END
> <r_user_dG.exp>
-9.882

$$$$
29
  -OEChem-05162309453D
 Structure written by MMmdl.
 56 59  0     1  0  0  0  0  0999 V2000
    1.3901   29.1077    6.7935 C   0  0  0  0  0  0  0  0  0  0  0  0
   -1.6911   31.9130    8.0794 C   0  0  0  0  0  0  0  0  0  0  0  0
   -0.7437   26.3748    8.8319 C   0  0  0  0  0  0  0  0  0  0  0  0
   -1.3142   25.5567    9.9914 C   0  0  0  0  0  0  0  0  0  0  0  0
   -1.1214   24.0589    9.6854 C   0  0  0  0  0  0  0  0  0  0  0  0
   -1.5824   23.1795   10.8502 C   0  0  0  0  0  0  0  0  0  0  0  0
   -0.8551   23.5463   12.1491 C   0  0  0  0  0  0  0  0  0  0  0  0
   -1.0780   25.0277   12.4857 C   0  0  0  0  0  0  0  0  0  0  0  0
   -0.6321   25.9351   11.3273 C   0  0  0  0  0  0  0  0  0  0  0  0
    4.6903   25.7129    5.8380 C   0  0  0  0  0  0  0  0  0  0  0  0
    4.6667   25.1395    7.1233 C   0  0  3  0  0  0  0  0  0  0  0  0
    3.9496   25.7658    8.1576 C   0  0  0  0  0  0  0  0  0  0  0  0
    3.2460   26.9556    7.8985 C   0  0  0  0  0  0  0  0  0  0  0  0
    0.6302   28.2313    7.4508 N   0  0  0  0  0  0  0  0  0  0  0  0
   -0.4898   28.6252    8.0923 C   0  0  0  0  0  0  0  0  0  0  0  0
   -1.1796   27.7315    8.8832 O   0  0  0  0  0  0  0  0  0  0  0  0
   -0.8660   29.9818    8.0000 C   0  0  0  0  0  0  0  0  0  0  0  0
   -1.9251   30.7129    8.5212 N   0  0  0  0  0  0  0  0  0  0  0  0
   -0.5542   32.0464    7.3306 N   0  0  0  0  0  0  0  0  0  0  0  0
   -0.0249   30.7863    7.2610 C   0  0  0  0  0  0  0  0  0  0  0  0
    1.1172   30.4049    6.6113 N   0  0  0  0  0  0  0  0  0  0  0  0
    2.5827   28.6807    6.3360 N   0  0  0  0  0  0  0  0  0  0  0  0
    3.2365   27.5251    6.6032 C   0  0  0  0  0  0  0  0  0  0  0  0
    3.9871   26.9068    5.5819 C   0  0  0  0  0  0  0  0  0  0  0  0
    5.4311   23.8790    7.4001 S   0  0  0  0  0  0  0  0  0  0  0  0
    5.8108   23.2938    6.1199 O   0  0  0  0  0  0  0  0  0  0  0  0
    6.4234   24.1721    8.4274 O   0  0  0  0  0  0  0  0  0  0  0  0
    4.4921   22.8906    8.0257 N   0  0  0  0  0  0  0  0  0  0  0  0
    3.8604   21.8742    7.2087 C   0  0  0  0  0  0  0  0  0  0  0  0
    4.2167   22.9522    9.4469 C   0  0  0  0  0  0  0  0  0  0  0  0
   -2.3473   32.7449    8.2886 H   0  0  0  0  0  0  0  0  0  0  0  0
    0.3548   26.3504    8.8841 H   0  0  0  0  0  0  0  0  0  0  0  0
   -1.0756   25.9287    7.8828 H   0  0  0  0  0  0  0  0  0  0  0  0
   -2.3913   25.7635   10.0760 H   0  0  0  0  0  0  0  0  0  0  0  0
   -1.7056   23.7998    8.7901 H   0  0  0  0  0  0  0  0  0  0  0  0
   -0.0549   23.8683    9.4951 H   0  0  0  0  0  0  0  0  0  0  0  0
   -2.6643   23.3154   10.9950 H   0  0  0  0  0  0  0  0  0  0  0  0
   -1.3742   22.1268   10.6083 H   0  0  0  0  0  0  0  0  0  0  0  0
   -1.2434   22.9254   12.9699 H   0  0  0  0  0  0  0  0  0  0  0  0
    0.2221   23.3603   12.0266 H   0  0  0  0  0  0  0  0  0  0  0  0
   -2.1477   25.1942   12.6804 H   0  0  0  0  0  0  0  0  0  0  0  0
   -0.4976   25.2825   13.3847 H   0  0  0  0  0  0  0  0  0  0  0  0
    0.4575   25.8452   11.2064 H   0  0  0  0  0  0  0  0  0  0  0  0
   -0.8891   26.9759   11.5737 H   0  0  0  0  0  0  0  0  0  0  0  0
    5.2489   25.2365    5.0459 H   0  0  0  0  0  0  0  0  0  0  0  0
    3.7780   24.5503    6.8530 H   0  0  0  0  0  0  0  0  0  0  0  0
    3.2144   25.0342    8.5240 H   0  0  0  0  0  0  0  0  0  0  0  0
    4.6724   25.9904    8.9558 H   0  0  0  0  0  0  0  0  0  0  0  0
    2.7061   27.4407    8.6982 H   0  0  0  0  0  0  0  0  0  0  0  0
    4.0232   27.3508    4.5981 H   0  0  0  0  0  0  0  0  0  0  0  0
    3.2118   21.2476    7.8385 H   0  0  0  0  0  0  0  0  0  0  0  0
    3.2563   22.3563    6.4260 H   0  0  0  0  0  0  0  0  0  0  0  0
    4.6336   21.2471    6.7409 H   0  0  0  0  0  0  0  0  0  0  0  0
    3.5112   22.1534    9.7192 H   0  0  0  0  0  0  0  0  0  0  0  0
    5.1537   22.8206   10.0079 H   0  0  0  0  0  0  0  0  0  0  0  0
    3.7763   23.9297    9.6929 H   0  0  0  0  0  0  0  0  0  0  0  0
  1 14  1  0  0  0  0
  1 21  1  0  0  0  0
  1 22  2  0  0  0  0
  2 18  1  0  0  0  0
  2 19  2  0  0  0  0
  3  4  1  0  0  0  0
  3 16  1  0  0  0  0
  4  5  1  0  0  0  0
  4  9  1  0  0  0  0
  5  6  1  0  0  0  0
  6  7  1  0  0  0  0
  7  8  1  0  0  0  0
  8  9  1  0  0  0  0
 10 11  1  0  0  0  0
 10 24  2  0  0  0  0
 11 12  1  0  0  0  0
 11 25  1  0  0  0  0
 12 13  1  0  0  0  0
 13 23  2  0  0  0  0
 14 15  2  0  0  0  0
 15 16  1  0  0  0  0
 15 17  1  0  0  0  0
 17 18  2  0  0  0  0
 17 20  1  0  0  0  0
 19 20  1  0  0  0  0
 20 21  2  0  0  0  0
 22 23  1  0  0  0  0
 23 24  1  0  0  0  0
 25 26  2  0  0  0  0
 25 27  2  0  0  0  0
 25 28  1  0  0  0  0
 28 29  1  0  0  0  0
 28 30  1  0  0  0  0
  2 31  1  0  0  0  0
  3 32  1  0  0  0  0
  3 33  1  0  0  0  0
  4 34  1  0  0  0  0
  5 35  1  0  0  0  0
  5 36  1  0  0  0  0
  6 37  1  0  0  0  0
  6 38  1  0  0  0  0
  7 39  1  0  0  0  0
  7 40  1  0  0  0  0
  8 41  1  0  0  0  0
  8 42  1  0  0  0  0
  9 43  1  0  0  0  0
  9 44  1  0  0  0  0
 10 45  1  0  0  0  0
 11 46  1  0  0  0  0
 12 47  1  0  0  0  0
 12 48  1  0  0  0  0
 13 49  1  0  0  0  0
 24 50  1  0  0  0  0
 29 51  1  0  0  0  0
 29 52  1  0  0  0  0
 29 53  1  0  0  0  0
 30 54  1  0  0  0  0
 30 55  1  0  0  0  0
 30 56  1  0  0  0  0
M  END
> <r_user_dG.exp>
-9.882

$$$$
29
  -OEChem-05162309453D
 Structure written by MMmdl.
 56 59  0     0  0  0  0  0  0999 V2000
    1.3901   29.1077    6.7935 C   0  0  0  0  0  0  0  0  0  0  0  0
   -1.6911   31.9130    8.0794 C   0  0  0  0  0  0  0  0  0  0  0  0
   -0.7437   26.3748    8.8319 C   0  0  0  0  0  0  0  0  0  0  0  0
   -1.3142   25.5567    9.9914 C   0  0  0  0  0  0  0  0  0  0  0  0
   -1.1214   24.0589    9.6854 C   0  0  0  0  0  0  0  0  0  0  0  0
   -1.5824   23.1795   10.8502 C   0  0  0  0  0  0  0  0  0  0  0  0
   -0.8551   23.5463   12.1491 C   0  0  0  0  0  0  0  0  0  0  0  0
   -1.0780   25.0277   12.4857 C   0  0  0  0  0  0  0  0  0  0  0  0
   -0.6321   25.9351   11.3273 C   0  0  0  0  0  0  0  0  0  0  0  0
    4.6903   25.7129    5.8380 C   0  0  0  0  0  0  0  0  0  0  0  0
    4.6667   25.1395    7.1233 C   0  0  0  0  0  0  0  0  0  0  0  0
    3.9496   25.7658    8.1576 C   0  0  0  0  0  0  0  0  0  0  0  0
    3.2460   26.9556    7.8985 C   0  0  0  0  0  0  0  0  0  0  0  0
    0.6302   28.2313    7.4508 N   0  0  0  0  0  0  0  0  0  0  0  0
   -0.4898   28.6252    8.0923 C   0  0  0  0  0  0  0  0  0  0  0  0
   -1.1796   27.7315    8.8832 O   0  0  0  0  0  0  0  0  0  0  0  0
   -0.8660   29.9818    8.0000 C   0  0  0  0  0  0  0  0  0  0  0  0
   -1.9251   30.7129    8.5212 N   0  0  0  0  0  0  0  0  0  0  0  0
   -0.5542   32.0464    7.3306 N   0  0  0  0  0  0  0  0  0  0  0  0
   -0.0249   30.7863    7.2610 C   0  0  0  0  0  0  0  0  0  0  0  0
    1.1172   30.4049    6.6113 N   0  0  0  0  0  0  0  0  0  0  0  0
    2.5827   28.6807    6.3360 N   0  0  0  0  0  0  0  0  0  0  0  0
    3.2365   27.5251    6.6032 C   0  0  0  0  0  0  0  0  0  0  0  0
    3.9871   26.9068    5.5819 C   0  0  0  0  0  0  0  0  0  0  0  0
    5.4311   23.8790    7.4001 S   0  0  0  0  0  0  0  0  0  0  0  0
    5.8108   23.2938    6.1199 O   0  0  0  0  0  0  0  0  0  0  0  0
    6.4234   24.1721    8.4274 O   0  0  0  0  0  0  0  0  0  0  0  0
    4.4921   22.8906    8.0257 N   0  0  0  0  0  0  0  0  0  0  0  0
    3.8604   21.8742    7.2087 C   0  0  0  0  0  0  0  0  0  0  0  0
    4.2167   22.9522    9.4469 C   0  0  0  0  0  0  0  0  0  0  0  0
   -2.3473   32.7449    8.2886 H   0  0  0  0  0  0  0  0  0  0  0  0
    0.3548   26.3504    8.8841 H   0  0  0  0  0  0  0  0  0  0  0  0
   -1.0756   25.9287    7.8828 H   0  0  0  0  0  0  0  0  0  0  0  0
   -2.3913   25.7635   10.0760 H   0  0  0  0  0  0  0  0  0  0  0  0
   -1.7056   23.7998    8.7901 H   0  0  0  0  0  0  0  0  0  0  0  0
   -0.0549   23.8683    9.4951 H   0  0  0  0  0  0  0  0  0  0  0  0
   -2.6643   23.3154   10.9950 H   0  0  0  0  0  0  0  0  0  0  0  0
   -1.3742   22.1268   10.6083 H   0  0  0  0  0  0  0  0  0  0  0  0
   -1.2434   22.9254   12.9699 H   0  0  0  0  0  0  0  0  0  0  0  0
    0.2221   23.3603   12.0266 H   0  0  0  0  0  0  0  0  0  0  0  0
   -2.1477   25.1942   12.6804 H   0  0  0  0  0  0  0  0  0  0  0  0
   -0.4976   25.2825   13.3847 H   0  0  0  0  0  0  0  0  0  0  0  0
    0.4575   25.8452   11.2064 H   0  0  0  0  0  0  0  0  0  0  0  0
   -0.8891   26.9759   11.5737 H   0  0  0  0  0  0  0  0  0  0  0  0
    5.2489   25.2365    5.0459 H   0  0  0  0  0  0  0  0  0  0  0  0
    3.2144   25.0342    8.5240 H   0  0  0  0  0  0  0  0  0  0  0  0
    4.6724   25.9904    8.9558 H   0  0  0  0  0  0  0  0  0  0  0  0
    2.7061   27.4407    8.6982 H   0  0  0  0  0  0  0  0  0  0  0  0
    4.7300   27.6448    5.2450 H   0  0  0  0  0  0  0  0  0  0  0  0
    3.2866   26.6910    4.7617 H   0  0  0  0  0  0  0  0  0  0  0  0
    3.2118   21.2476    7.8385 H   0  0  0  0  0  0  0  0  0  0  0  0
    3.2563   22.3563    6.4260 H   0  0  0  0  0  0  0  0  0  0  0  0
    4.6336   21.2471    6.7409 H   0  0  0  0  0  0  0  0  0  0  0  0
    3.5112   22.1534    9.7192 H   0  0  0  0  0  0  0  0  0  0  0  0
    5.1537   22.8206   10.0079 H   0  0  0  0  0  0  0  0  0  0  0  0
    3.7763   23.9297    9.6929 H   0  0  0  0  0  0  0  0  0  0  0  0
  1 14  1  0  0  0  0
  1 21  1  0  0  0  0
  1 22  2  0  0  0  0
  2 18  1  0  0  0  0
  2 19  2  0  0  0  0
  3  4  1  0  0  0  0
  3 16  1  0  0  0  0
  4  5  1  0  0  0  0
  4  9  1  0  0  0  0
  5  6  1  0  0  0  0
  6  7  1  0  0  0  0
  7  8  1  0  0  0  0
  8  9  1  0  0  0  0
 10 11  2  0  0  0  0
 10 24  1  0  0  0  0
 11 12  1  0  0  0  0
 11 25  1  0  0  0  0
 12 13  1  0  0  0  0
 13 23  2  0  0  0  0
 14 15  2  0  0  0  0
 15 16  1  0  0  0  0
 15 17  1  0  0  0  0
 17 18  2  0  0  0  0
 17 20  1  0  0  0  0
 19 20  1  0  0  0  0
 20 21  2  0  0  0  0
 22 23  1  0  0  0  0
 23 24  1  0  0  0  0
 25 26  2  0  0  0  0
 25 27  2  0  0  0  0
 25 28  1  0  0  0  0
 28 29  1  0  0  0  0
 28 30  1  0  0  0  0
  2 31  1  0  0  0  0
  3 32  1  0  0  0  0
  3 33  1  0  0  0  0
  4 34  1  0  0  0  0
  5 35  1  0  0  0  0
  5 36  1  0  0  0  0
  6 37  1  0  0  0  0
  6 38  1  0  0  0  0
  7 39  1  0  0  0  0
  7 40  1  0  0  0  0
  8 41  1  0  0  0  0
  8 42  1  0  0  0  0
  9 43  1  0  0  0  0
  9 44  1  0  0  0  0
 10 45  1  0  0  0  0
 12 46  1  0  0  0  0
 12 47  1  0  0  0  0
 13 48  1  0  0  0  0
 24 49  1  0  0  0  0
 24 50  1  0  0  0  0
 29 51  1  0  0  0  0
 29 52  1  0  0  0  0
 29 53  1  0  0  0  0
 30 54  1  0  0  0  0
 30 55  1  0  0  0  0
 30 56  1  0  0  0  0
M  END
> <r_user_dG.exp>
-9.882

$$$$
29
  -OEChem-05162309453D
 Structure written by MMmdl.
 56 59  0     0  0  0  0  0  0999 V2000
    1.3901   29.1077    6.7935 C   0  0  0  0  0  0  0  0  0  0  0  0
   -1.6911   31.9130    8.0794 C   0  0  0  0  0  0  0  0  0  0  0  0
   -0.7437   26.3748    8.8319 C   0  0  0  0  0  0  0  0  0  0  0  0
   -1.3142   25.5567    9.9914 C   0  0  0  0  0  0  0  0  0  0  0  0
   -1.1214   24.0589    9.6854 C   0  0  0  0  0  0  0  0  0  0  0  0
   -1.5824   23.1795   10.8502 C   0  0  0  0  0  0  0  0  0  0  0  0
   -0.8551   23.5463   12.1491 C   0  0  0  0  0  0  0  0  0  0  0  0
   -1.0780   25.0277   12.4857 C   0  0  0  0  0  0  0  0  0  0  0  0
   -0.6321   25.9351   11.3273 C   0  0  0  0  0  0  0  0  0  0  0  0
    4.6903   25.7129    5.8380 C   0  0  0  0  0  0  0  0  0  0  0  0
    4.6667   25.1395    7.1233 C   0  0  0  0  0  0  0  0  0  0  0  0
    3.9496   25.7658    8.1576 C   0  0  0  0  0  0  0  0  0  0  0  0
    3.2460   26.9556    7.8985 C   0  0  0  0  0  0  0  0  0  0  0  0
    0.6302   28.2313    7.4508 N   0  0  0  0  0  0  0  0  0  0  0  0
   -0.4898   28.6252    8.0923 C   0  0  0  0  0  0  0  0  0  0  0  0
   -1.1796   27.7315    8.8832 O   0  0  0  0  0  0  0  0  0  0  0  0
   -0.8660   29.9818    8.0000 C   0  0  0  0  0  0  0  0  0  0  0  0
   -1.9251   30.7129    8.5212 N   0  0  0  0  0  0  0  0  0  0  0  0
   -0.5542   32.0464    7.3306 N   0  0  0  0  0  0  0  0  0  0  0  0
   -0.0249   30.7863    7.2610 C   0  0  0  0  0  0  0  0  0  0  0  0
    1.1172   30.4049    6.6113 N   0  0  0  0  0  0  0  0  0  0  0  0
    2.5827   28.6807    6.3360 N   0  0  0  0  0  0  0  0  0  0  0  0
    3.2365   27.5251    6.6032 C   0  0  0  0  0  0  0  0  0  0  0  0
    3.9871   26.9068    5.5819 C   0  0  0  0  0  0  0  0  0  0  0  0
    5.4311   23.8790    7.4001 S   0  0  0  0  0  0  0  0  0  0  0  0
    5.8108   23.2938    6.1199 O   0  0  0  0  0  0  0  0  0  0  0  0
    6.4234   24.1721    8.4274 O   0  0  0  0  0  0  0  0  0  0  0  0
    4.4921   22.8906    8.0257 N   0  0  0  0  0  0  0  0  0  0  0  0
    3.8604   21.8742    7.2087 C   0  0  0  0  0  0  0  0  0  0  0  0
    4.2167   22.9522    9.4469 C   0  0  0  0  0  0  0  0  0  0  0  0
   -2.3473   32.7449    8.2886 H   0  0  0  0  0  0  0  0  0  0  0  0
    0.3548   26.3504    8.8841 H   0  0  0  0  0  0  0  0  0  0  0  0
   -1.0756   25.9287    7.8828 H   0  0  0  0  0  0  0  0  0  0  0  0
   -2.3913   25.7635   10.0760 H   0  0  0  0  0  0  0  0  0  0  0  0
   -1.7056   23.7998    8.7901 H   0  0  0  0  0  0  0  0  0  0  0  0
   -0.0549   23.8683    9.4951 H   0  0  0  0  0  0  0  0  0  0  0  0
   -2.6643   23.3154   10.9950 H   0  0  0  0  0  0  0  0  0  0  0  0
   -1.3742   22.1268   10.6083 H   0  0  0  0  0  0  0  0  0  0  0  0
   -1.2434   22.9254   12.9699 H   0  0  0  0  0  0  0  0  0  0  0  0
    0.2221   23.3603   12.0266 H   0  0  0  0  0  0  0  0  0  0  0  0
   -2.1477   25.1942   12.6804 H   0  0  0  0  0  0  0  0  0  0  0  0
   -0.4976   25.2825   13.3847 H   0  0  0  0  0  0  0  0  0  0  0  0
    0.4575   25.8452   11.2064 H   0  0  0  0  0  0  0  0  0  0  0  0
   -0.8891   26.9759   11.5737 H   0  0  0  0  0  0  0  0  0  0  0  0
    5.2489   25.2365    5.0459 H   0  0  0  0  0  0  0  0  0  0  0  0
    3.2144   25.0342    8.5240 H   0  0  0  0  0  0  0  0  0  0  0  0
    4.6724   25.9904    8.9558 H   0  0  0  0  0  0  0  0  0  0  0  0
    2.1960   26.7631    8.1641 H   0  0  0  0  0  0  0  0  0  0  0  0
    3.6610   27.7186    8.5734 H   0  0  0  0  0  0  0  0  0  0  0  0
    4.0232   27.3508    4.5981 H   0  0  0  0  0  0  0  0  0  0  0  0
    3.2118   21.2476    7.8385 H   0  0  0  0  0  0  0  0  0  0  0  0
    3.2563   22.3563    6.4260 H   0  0  0  0  0  0  0  0  0  0  0  0
    4.6336   21.2471    6.7409 H   0  0  0  0  0  0  0  0  0  0  0  0
    3.5112   22.1534    9.7192 H   0  0  0  0  0  0  0  0  0  0  0  0
    5.1537   22.8206   10.0079 H   0  0  0  0  0  0  0  0  0  0  0  0
    3.7763   23.9297    9.6929 H   0  0  0  0  0  0  0  0  0  0  0  0
  1 14  1  0  0  0  0
  1 21  1  0  0  0  0
  1 22  2  0  0  0  0
  2 18  1  0  0  0  0
  2 19  2  0  0  0  0
  3  4  1  0  0  0  0
  3 16  1  0  0  0  0
  4  5  1  0  0  0  0
  4  9  1  0  0  0  0
  5  6  1  0  0  0  0
  6  7  1  0  0  0  0
  7  8  1  0  0  0  0
  8  9  1  0  0  0  0
 10 11  2  0  0  0  0
 10 24  1  0  0  0  0
 11 12  1  0  0  0  0
 11 25  1  0  0  0  0
 12 13  1  0  0  0  0
 13 23  1  0  0  0  0
 14 15  2  0  0  0  0
 15 16  1  0  0  0  0
 15 17  1  0  0  0  0
 17 18  2  0  0  0  0
 17 20  1  0  0  0  0
 19 20  1  0  0  0  0
 20 21  2  0  0  0  0
 22 23  1  0  0  0  0
 23 24  2  0  0  0  0
 25 26  2  0  0  0  0
 25 27  2  0  0  0  0
 25 28  1  0  0  0  0
 28 29  1  0  0  0  0
 28 30  1  0  0  0  0
  2 31  1  0  0  0  0
  3 32  1  0  0  0  0
  3 33  1  0  0  0  0
  4 34  1  0  0  0  0
  5 35  1  0  0  0  0
  5 36  1  0  0  0  0
  6 37  1  0  0  0  0
  6 38  1  0  0  0  0
  7 39  1  0  0  0  0
  7 40  1  0  0  0  0
  8 41  1  0  0  0  0
  8 42  1  0  0  0  0
  9 43  1  0  0  0  0
  9 44  1  0  0  0  0
 10 45  1  0  0  0  0
 12 46  1  0  0  0  0
 12 47  1  0  0  0  0
 13 48  1  0  0  0  0
 13 49  1  0  0  0  0
 24 50  1  0  0  0  0
 29 51  1  0  0  0  0
 29 52  1  0  0  0  0
 29 53  1  0  0  0  0
 30 54  1  0  0  0  0
 30 55  1  0  0  0  0
 30 56  1  0  0  0  0
M  END
> <r_user_dG.exp>
-9.882

$$$$
29
  -OEChem-05162309453D
 Structure written by MMmdl.
 56 59  0     1  0  0  0  0  0999 V2000
    1.3901   29.1077    6.7935 C   0  0  3  0  0  0  0  0  0  0  0  0
   -1.6911   31.9130    8.0794 C   0  0  0  0  0  0  0  0  0  0  0  0
   -0.7437   26.3748    8.8319 C   0  0  0  0  0  0  0  0  0  0  0  0
   -1.3142   25.5567    9.9914 C   0  0  0  0  0  0  0  0  0  0  0  0
   -1.1214   24.0589    9.6854 C   0  0  0  0  0  0  0  0  0  0  0  0
   -1.5824   23.1795   10.8502 C   0  0  0  0  0  0  0  0  0  0  0  0
   -0.8551   23.5463   12.1491 C   0  0  0  0  0  0  0  0  0  0  0  0
   -1.0780   25.0277   12.4857 C   0  0  0  0  0  0  0  0  0  0  0  0
   -0.6321   25.9351   11.3273 C   0  0  0  0  0  0  0  0  0  0  0  0
    4.6903   25.7129    5.8380 C   0  0  0  0  0  0  0  0  0  0  0  0
    4.6667   25.1395    7.1233 C   0  0  0  0  0  0  0  0  0  0  0  0
    3.9496   25.7658    8.1576 C   0  0  0  0  0  0  0  0  0  0  0  0
    3.2460   26.9556    7.8985 C   0  0  0  0  0  0  0  0  0  0  0  0
    0.6302   28.2313    7.4508 N   0  0  0  0  0  0  0  0  0  0  0  0
   -0.4898   28.6252    8.0923 C   0  0  0  0  0  0  0  0  0  0  0  0
   -1.1796   27.7315    8.8832 O   0  0  0  0  0  0  0  0  0  0  0  0
   -0.8660   29.9818    8.0000 C   0  0  0  0  0  0  0  0  0  0  0  0
   -1.9251   30.7129    8.5212 N   0  0  0  0  0  0  0  0  0  0  0  0
   -0.5542   32.0464    7.3306 N   0  0  0  0  0  0  0  0  0  0  0  0
   -0.0249   30.7863    7.2610 C   0  0  0  0  0  0  0  0  0  0  0  0
    1.1172   30.4049    6.6113 N   0  0  0  0  0  0  0  0  0  0  0  0
    2.5827   28.6807    6.3360 N   0  0  0  0  0  0  0  0  0  0  0  0
    3.2365   27.5251    6.6032 C   0  0  0  0  0  0  0  0  0  0  0  0
    3.9871   26.9068    5.5819 C   0  0  0  0  0  0  0  0  0  0  0  0
    5.4311   23.8790    7.4001 S   0  0  0  0  0  0  0  0  0  0  0  0
    5.8108   23.2938    6.1199 O   0  0  0  0  0  0  0  0  0  0  0  0
    6.4234   24.1721    8.4274 O   0  0  0  0  0  0  0  0  0  0  0  0
    4.4921   22.8906    8.0257 N   0  0  0  0  0  0  0  0  0  0  0  0
    3.8604   21.8742    7.2087 C   0  0  0  0  0  0  0  0  0  0  0  0
    4.2167   22.9522    9.4469 C   0  0  0  0  0  0  0  0  0  0  0  0
    0.9058   28.8482    5.8406 H   0  0  0  0  0  0  0  0  0  0  0  0
   -2.3473   32.7449    8.2886 H   0  0  0  0  0  0  0  0  0  0  0  0
    0.3548   26.3504    8.8841 H   0  0  0  0  0  0  0  0  0  0  0  0
   -1.0756   25.9287    7.8828 H   0  0  0  0  0  0  0  0  0  0  0  0
   -2.3913   25.7635   10.0760 H   0  0  0  0  0  0  0  0  0  0  0  0
   -1.7056   23.7998    8.7901 H   0  0  0  0  0  0  0  0  0  0  0  0
   -0.0549   23.8683    9.4951 H   0  0  0  0  0  0  0  0  0  0  0  0
   -2.6643   23.3154   10.9950 H   0  0  0  0  0  0  0  0  0  0  0  0
   -1.3742   22.1268   10.6083 H   0  0  0  0  0  0  0  0  0  0  0  0
   -1.2434   22.9254   12.9699 H   0  0  0  0  0  0  0  0  0  0  0  0
    0.2221   23.3603   12.0266 H   0  0  0  0  0  0  0  0  0  0  0  0
   -2.1477   25.1942   12.6804 H   0  0  0  0  0  0  0  0  0  0  0  0
   -0.4976   25.2825   13.3847 H   0  0  0  0  0  0  0  0  0  0  0  0
    0.4575   25.8452   11.2064 H   0  0  0  0  0  0  0  0  0  0  0  0
   -0.8891   26.9759   11.5737 H   0  0  0  0  0  0  0  0  0  0  0  0
    5.2489   25.2365    5.0459 H   0  0  0  0  0  0  0  0  0  0  0  0
    3.7780   24.5503    6.8530 H   0  0  0  0  0  0  0  0  0  0  0  0
    3.9391   25.3347    9.1478 H   0  0  0  0  0  0  0  0  0  0  0  0
    2.7061   27.4407    8.6982 H   0  0  0  0  0  0  0  0  0  0  0  0
    4.0232   27.3508    4.5981 H   0  0  0  0  0  0  0  0  0  0  0  0
    3.2118   21.2476    7.8385 H   0  0  0  0  0  0  0  0  0  0  0  0
    3.2563   22.3563    6.4260 H   0  0  0  0  0  0  0  0  0  0  0  0
    4.6336   21.2471    6.7409 H   0  0  0  0  0  0  0  0  0  0  0  0
    3.5112   22.1534    9.7192 H   0  0  0  0  0  0  0  0  0  0  0  0
    5.1537   22.8206   10.0079 H   0  0  0  0  0  0  0  0  0  0  0  0
    3.7763   23.9297    9.6929 H   0  0  0  0  0  0  0  0  0  0  0  0
  1 14  1  0  0  0  0
  1 21  1  0  0  0  0
  1 22  1  0  0  0  0
  2 18  1  0  0  0  0
  2 19  2  0  0  0  0
  3  4  1  0  0  0  0
  3 16  1  0  0  0  0
  4  5  1  0  0  0  0
  4  9  1  0  0  0  0
  5  6  1  0  0  0  0
  6  7  1  0  0  0  0
  7  8  1  0  0  0  0
  8  9  1  0  0  0  0
 10 11  1  0  0  0  0
 10 24  2  0  0  0  0
 11 12  1  0  0  0  0
 11 25  1  0  0  0  0
 12 13  2  0  0  0  0
 13 23  1  0  0  0  0
 14 15  2  0  0  0  0
 15 16  1  0  0  0  0
 15 17  1  0  0  0  0
 17 18  2  0  0  0  0
 17 20  1  0  0  0  0
 19 20  1  0  0  0  0
 20 21  2  0  0  0  0
 22 23  2  0  0  0  0
 23 24  1  0  0  0  0
 25 26  2  0  0  0  0
 25 27  2  0  0  0  0
 25 28  1  0  0  0  0
 28 29  1  0  0  0  0
 28 30  1  0  0  0  0
  1 31  1  0  0  0  0
  2 32  1  0  0  0  0
  3 33  1  0  0  0  0
  3 34  1  0  0  0  0
  4 35  1  0  0  0  0
  5 36  1  0  0  0  0
  5 37  1  0  0  0  0
  6 38  1  0  0  0  0
  6 39  1  0  0  0  0
  7 40  1  0  0  0  0
  7 41  1  0  0  0  0
  8 42  1  0  0  0  0
  8 43  1  0  0  0  0
  9 44  1  0  0  0  0
  9 45  1  0  0  0  0
 10 46  1  0  0  0  0
 11 47  1  0  0  0  0
 12 48  1  0  0  0  0
 13 49  1  0  0  0  0
 24 50  1  0  0  0  0
 29 51  1  0  0  0  0
 29 52  1  0  0  0  0
 29 53  1  0  0  0  0
 30 54  1  0  0  0  0
 30 55  1  0  0  0  0
 30 56  1  0  0  0  0
M  END
> <r_user_dG.exp>
-9.882

$$$$
29
  -OEChem-05162309453D
 Structure written by MMmdl.
 56 59  0     1  0  0  0  0  0999 V2000
    1.3901   29.1077    6.7935 C   0  0  3  0  0  0  0  0  0  0  0  0
   -1.6911   31.9130    8.0794 C   0  0  0  0  0  0  0  0  0  0  0  0
   -0.7437   26.3748    8.8319 C   0  0  0  0  0  0  0  0  0  0  0  0
   -1.3142   25.5567    9.9914 C   0  0  0  0  0  0  0  0  0  0  0  0
   -1.1214   24.0589    9.6854 C   0  0  0  0  0  0  0  0  0  0  0  0
   -1.5824   23.1795   10.8502 C   0  0  0  0  0  0  0  0  0  0  0  0
   -0.8551   23.5463   12.1491 C   0  0  0  0  0  0  0  0  0  0  0  0
   -1.0780   25.0277   12.4857 C   0  0  0  0  0  0  0  0  0  0  0  0
   -0.6321   25.9351   11.3273 C   0  0  0  0  0  0  0  0  0  0  0  0
    4.6903   25.7129    5.8380 C   0  0  0  0  0  0  0  0  0  0  0  0
    4.6667   25.1395    7.1233 C   0  0  0  0  0  0  0  0  0  0  0  0
    3.9496   25.7658    8.1576 C   0  0  0  0  0  0  0  0  0  0  0  0
    3.2460   26.9556    7.8985 C   0  0  0  0  0  0  0  0  0  0  0  0
    0.6302   28.2313    7.4508 N   0  0  0  0  0  0  0  0  0  0  0  0
   -0.4898   28.6252    8.0923 C   0  0  0  0  0  0  0  0  0  0  0  0
   -1.1796   27.7315    8.8832 O   0  0  0  0  0  0  0  0  0  0  0  0
   -0.8660   29.9818    8.0000 C   0  0  0  0  0  0  0  0  0  0  0  0
   -1.9251   30.7129    8.5212 N   0  0  0  0  0  0  0  0  0  0  0  0
   -0.5542   32.0464    7.3306 N   0  0  0  0  0  0  0  0  0  0  0  0
   -0.0249   30.7863    7.2610 C   0  0  0  0  0  0  0  0  0  0  0  0
    1.1172   30.4049    6.6113 N   0  0  0  0  0  0  0  0  0  0  0  0
    2.5827   28.6807    6.3360 N   0  0  0  0  0  0  0  0  0  0  0  0
    3.2365   27.5251    6.6032 C   0  0  0  0  0  0  0  0  0  0  0  0
    3.9871   26.9068    5.5819 C   0  0  0  0  0  0  0  0  0  0  0  0
    5.4311   23.8790    7.4001 S   0  0  0  0  0  0  0  0  0  0  0  0
    5.8108   23.2938    6.1199 O   0  0  0  0  0  0  0  0  0  0  0  0
    6.4234   24.1721    8.4274 O   0  0  0  0  0  0  0  0  0  0  0  0
    4.4921   22.8906    8.0257 N   0  0  0  0  0  0  0  0  0  0  0  0
    3.8604   21.8742    7.2087 C   0  0  0  0  0  0  0  0  0  0  0  0
    4.2167   22.9522    9.4469 C   0  0  0  0  0  0  0  0  0  0  0  0
    0.9058   28.8482    5.8406 H   0  0  0  0  0  0  0  0  0  0  0  0
   -2.3473   32.7449    8.2886 H   0  0  0  0  0  0  0  0  0  0  0  0
    0.3548   26.3504    8.8841 H   0  0  0  0  0  0  0  0  0  0  0  0
   -1.0756   25.9287    7.8828 H   0  0  0  0  0  0  0  0  0  0  0  0
   -2.3913   25.7635   10.0760 H   0  0  0  0  0  0  0  0  0  0  0  0
   -1.7056   23.7998    8.7901 H   0  0  0  0  0  0  0  0  0  0  0  0
   -0.0549   23.8683    9.4951 H   0  0  0  0  0  0  0  0  0  0  0  0
   -2.6643   23.3154   10.9950 H   0  0  0  0  0  0  0  0  0  0  0  0
   -1.3742   22.1268   10.6083 H   0  0  0  0  0  0  0  0  0  0  0  0
   -1.2434   22.9254   12.9699 H   0  0  0  0  0  0  0  0  0  0  0  0
    0.2221   23.3603   12.0266 H   0  0  0  0  0  0  0  0  0  0  0  0
   -2.1477   25.1942   12.6804 H   0  0  0  0  0  0  0  0  0  0  0  0
   -0.4976   25.2825   13.3847 H   0  0  0  0  0  0  0  0  0  0  0  0
    0.4575   25.8452   11.2064 H   0  0  0  0  0  0  0  0  0  0  0  0
   -0.8891   26.9759   11.5737 H   0  0  0  0  0  0  0  0  0  0  0  0
    5.2489   25.2365    5.0459 H   0  0  0  0  0  0  0  0  0  0  0  0
    3.9391   25.3347    9.1478 H   0  0  0  0  0  0  0  0  0  0  0  0
    2.7061   27.4407    8.6982 H   0  0  0  0  0  0  0  0  0  0  0  0
    4.7300   27.6448    5.2450 H   0  0  0  0  0  0  0  0  0  0  0  0
    3.2866   26.6910    4.7617 H   0  0  0  0  0  0  0  0  0  0  0  0
    3.2118   21.2476    7.8385 H   0  0  0  0  0  0  0  0  0  0  0  0
    3.2563   22.3563    6.4260 H   0  0  0  0  0  0  0  0  0  0  0  0
    4.6336   21.2471    6.7409 H   0  0  0  0  0  0  0  0  0  0  0  0
    3.5112   22.1534    9.7192 H   0  0  0  0  0  0  0  0  0  0  0  0
    5.1537   22.8206   10.0079 H   0  0  0  0  0  0  0  0  0  0  0  0
    3.7763   23.9297    9.6929 H   0  0  0  0  0  0  0  0  0  0  0  0
  1 14  1  0  0  0  0
  1 21  1  0  0  0  0
  1 22  1  0  0  0  0
  2 18  1  0  0  0  0
  2 19  2  0  0  0  0
  3  4  1  0  0  0  0
  3 16  1  0  0  0  0
  4  5  1  0  0  0  0
  4  9  1  0  0  0  0
  5  6  1  0  0  0  0
  6  7  1  0  0  0  0
  7  8  1  0  0  0  0
  8  9  1  0  0  0  0
 10 11  2  0  0  0  0
 10 24  1  0  0  0  0
 11 12  1  0  0  0  0
 11 25  1  0  0  0  0
 12 13  2  0  0  0  0
 13 23  1  0  0  0  0
 14 15  2  0  0  0  0
 15 16  1  0  0  0  0
 15 17  1  0  0  0  0
 17 18  2  0  0  0  0
 17 20  1  0  0  0  0
 19 20  1  0  0  0  0
 20 21  2  0  0  0  0
 22 23  2  3  0  0  0
 23 24  1  0  0  0  0
 25 26  2  0  0  0  0
 25 27  2  0  0  0  0
 25 28  1  0  0  0  0
 28 29  1  0  0  0  0
 28 30  1  0  0  0  0
  1 31  1  0  0  0  0
  2 32  1  0  0  0  0
  3 33  1  0  0  0  0
  3 34  1  0  0  0  0
  4 35  1  0  0  0  0
  5 36  1  0  0  0  0
  5 37  1  0  0  0  0
  6 38  1  0  0  0  0
  6 39  1  0  0  0  0
  7 40  1  0  0  0  0
  7 41  1  0  0  0  0
  8 42  1  0  0  0  0
  8 43  1  0  0  0  0
  9 44  1  0  0  0  0
  9 45  1  0  0  0  0
 10 46  1  0  0  0  0
 12 47  1  0  0  0  0
 13 48  1  0  0  0  0
 24 49  1  0  0  0  0
 24 50  1  0  0  0  0
 29 51  1  0  0  0  0
 29 52  1  0  0  0  0
 29 53  1  0  0  0  0
 30 54  1  0  0  0  0
 30 55  1  0  0  0  0
 30 56  1  0  0  0  0
M  END
> <r_user_dG.exp>
-9.882

$$$$
