23474
  -OEChem-05162309453D
 Structure written by MMmdl.
 50 52  0     0  0  0  0  0  0999 V2000
   39.1872   17.7319   12.9711 O   0  0  0  0  0  0  0  0  0  0  0  0
   40.3302   17.2264   12.9065 C   0  0  0  0  0  0  0  0  0  0  0  0
   41.1481   17.4091   11.9779 O   0  0  0  0  0  0  0  0  0  0  0  0
   40.7697   16.2873   14.0319 C   0  0  0  0  0  0  0  0  0  0  0  0
   42.0557   15.7410   13.7696 O   0  0  0  0  0  0  0  0  0  0  0  0
   42.5145   14.9212   14.7395 C   0  0  0  0  0  0  0  0  0  0  0  0
   42.1856   13.5746   14.8668 C   0  0  0  0  0  0  0  0  0  0  0  0
   41.1590   12.6662   13.5413 Br  0  0  0  0  0  0  0  0  0  0  0  0
   42.6245   12.9340   16.0147 C   0  0  0  0  0  0  0  0  0  0  0  0
   42.3443   11.5877   16.4784 C   0  0  0  0  0  0  0  0  0  0  0  0
   43.3652   10.7569   16.9470 C   0  0  0  0  0  0  0  0  0  0  0  0
   43.0859    9.4573   17.3660 C   0  0  0  0  0  0  0  0  0  0  0  0
   41.7792    8.9724   17.3118 C   0  0  0  0  0  0  0  0  0  0  0  0
   40.7401    9.7888   16.8448 C   0  0  0  0  0  0  0  0  0  0  0  0
   39.4485    9.2406   16.7948 N   0  0  0  0  0  0  0  0  0  0  0  0
   39.1815    7.8314   17.0618 C   0  0  0  0  0  0  0  0  0  0  0  0
   39.6686    6.9137   15.9440 C   0  0  0  0  0  0  0  0  0  0  0  0
   41.1881    7.0661   15.7647 C   0  0  0  0  0  0  0  0  0  0  0  0
   41.7017    6.2017   14.6013 C   0  0  0  0  0  0  0  0  0  0  0  0
   40.9517    6.5196   13.2971 C   0  0  0  0  0  0  0  0  0  0  0  0
   39.4321    6.3672   13.4765 C   0  0  0  0  0  0  0  0  0  0  0  0
   38.9186    7.2316   14.6399 C   0  0  0  0  0  0  0  0  0  0  0  0
   41.0347   11.0942   16.4477 C   0  0  0  0  0  0  0  0  0  0  0  0
   43.6360   14.0254   16.9149 S   0  0  0  0  0  0  0  0  0  0  0  0
   43.3652   15.3253   15.7666 C   0  0  0  0  0  0  0  0  0  0  0  0
   44.0486   16.6108   16.0385 C   0  0  0  0  0  0  0  0  0  0  0  0
   43.8781   17.5598   15.2428 O   0  0  0  0  0  0  0  0  0  0  0  0
   44.7767   16.7158   17.0512 O   0  0  0  0  0  0  0  0  0  0  0  0
   40.7676   17.9904   11.3300 H   0  0  0  0  0  0  0  0  0  0  0  0
   40.8042   16.8500   14.9765 H   0  0  0  0  0  0  0  0  0  0  0  0
   40.0421   15.4671   14.1201 H   0  0  0  0  0  0  0  0  0  0  0  0
   44.3798   11.1250   16.9849 H   0  0  0  0  0  0  0  0  0  0  0  0
   43.8814    8.8256   17.7327 H   0  0  0  0  0  0  0  0  0  0  0  0
   41.5671    7.9628   17.6313 H   0  0  0  0  0  0  0  0  0  0  0  0
   38.9028    9.7561   17.4554 H   0  0  0  0  0  0  0  0  0  0  0  0
   39.6900    7.5483   17.9952 H   0  0  0  0  0  0  0  0  0  0  0  0
   38.0963    7.6958   17.1797 H   0  0  0  0  0  0  0  0  0  0  0  0
   39.4532    5.8723   16.2253 H   0  0  0  0  0  0  0  0  0  0  0  0
   41.4206    8.1211   15.5574 H   0  0  0  0  0  0  0  0  0  0  0  0
   41.6915    6.7550   16.6920 H   0  0  0  0  0  0  0  0  0  0  0  0
   42.7741    6.3979   14.4551 H   0  0  0  0  0  0  0  0  0  0  0  0
   41.5537    5.1406   14.8505 H   0  0  0  0  0  0  0  0  0  0  0  0
   41.1754    7.5542   12.9979 H   0  0  0  0  0  0  0  0  0  0  0  0
   41.2910    5.8290   12.5109 H   0  0  0  0  0  0  0  0  0  0  0  0
   38.9286    6.6783   12.5493 H   0  0  0  0  0  0  0  0  0  0  0  0
   39.1996    5.3122   13.6838 H   0  0  0  0  0  0  0  0  0  0  0  0
   37.8461    7.0355   14.7861 H   0  0  0  0  0  0  0  0  0  0  0  0
   39.0666    8.2927   14.3907 H   0  0  0  0  0  0  0  0  0  0  0  0
   40.2354   11.7370   16.1096 H   0  0  0  0  0  0  0  0  0  0  0  0
   45.1432   17.5915   17.0889 H   0  0  0  0  0  0  0  0  0  0  0  0
  1  2  2  0  0  0  0
  2  3  1  0  0  0  0
  2  4  1  0  0  0  0
  4  5  1  0  0  0  0
  5  6  1  0  0  0  0
  6 25  2  0  0  0  0
  6  7  1  0  0  0  0
  7  8  1  0  0  0  0
  7  9  2  0  0  0  0
  9 10  1  0  0  0  0
  9 24  1  0  0  0  0
 10 23  2  0  0  0  0
 10 11  1  0  0  0  0
 11 12  2  0  0  0  0
 12 13  1  0  0  0  0
 13 14  2  0  0  0  0
 14 15  1  0  0  0  0
 14 23  1  0  0  0  0
 15 16  1  0  0  0  0
 16 17  1  0  0  0  0
 17 22  1  0  0  0  0
 17 18  1  0  0  0  0
 18 19  1  0  0  0  0
 19 20  1  0  0  0  0
 20 21  1  0  0  0  0
 21 22  1  0  0  0  0
 24 25  1  0  0  0  0
 25 26  1  0  0  0  0
 26 27  2  0  0  0  0
 26 28  1  0  0  0  0
  3 29  1  0  0  0  0
  4 30  1  0  0  0  0
  4 31  1  0  0  0  0
 11 32  1  0  0  0  0
 12 33  1  0  0  0  0
 13 34  1  0  0  0  0
 15 35  1  0  0  0  0
 16 36  1  0  0  0  0
 16 37  1  0  0  0  0
 17 38  1  0  0  0  0
 18 39  1  0  0  0  0
 18 40  1  0  0  0  0
 19 41  1  0  0  0  0
 19 42  1  0  0  0  0
 20 43  1  0  0  0  0
 20 44  1  0  0  0  0
 21 45  1  0  0  0  0
 21 46  1  0  0  0  0
 22 47  1  0  0  0  0
 22 48  1  0  0  0  0
 23 49  1  0  0  0  0
 28 50  1  0  0  0  0
M  END
> <i_m_stars>
2

> <r_user_dG.exp>
-9.11205847715563

$$$$
23474
  -OEChem-05162309453D
 Structure written by MMmdl.
 50 52  0     0  0  0  0  0  0999 V2000
   39.1872   17.7319   12.9711 O   0  0  0  0  0  0  0  0  0  0  0  0
   40.3302   17.2264   12.9065 C   0  0  0  0  0  0  0  0  0  0  0  0
   41.1481   17.4091   11.9779 O   0  0  0  0  0  0  0  0  0  0  0  0
   40.7697   16.2873   14.0319 C   0  0  0  0  0  0  0  0  0  0  0  0
   42.0557   15.7410   13.7696 O   0  0  0  0  0  0  0  0  0  0  0  0
   42.5145   14.9212   14.7395 C   0  0  0  0  0  0  0  0  0  0  0  0
   42.1856   13.5746   14.8668 C   0  0  0  0  0  0  0  0  0  0  0  0
   41.1590   12.6662   13.5413 Br  0  0  0  0  0  0  0  0  0  0  0  0
   42.6245   12.9340   16.0147 C   0  0  0  0  0  0  0  0  0  0  0  0
   42.3443   11.5877   16.4784 C   0  0  0  0  0  0  0  0  0  0  0  0
   43.3652   10.7569   16.9470 C   0  0  0  0  0  0  0  0  0  0  0  0
   43.0859    9.4573   17.3660 C   0  0  0  0  0  0  0  0  0  0  0  0
   41.7792    8.9724   17.3118 C   0  0  0  0  0  0  0  0  0  0  0  0
   40.7401    9.7888   16.8448 C   0  0  0  0  0  0  0  0  0  0  0  0
   39.4485    9.2406   16.7948 N   0  0  0  0  0  0  0  0  0  0  0  0
   39.1815    7.8314   17.0618 C   0  0  0  0  0  0  0  0  0  0  0  0
   39.6686    6.9137   15.9440 C   0  0  0  0  0  0  0  0  0  0  0  0
   41.1881    7.0661   15.7647 C   0  0  0  0  0  0  0  0  0  0  0  0
   41.7017    6.2017   14.6013 C   0  0  0  0  0  0  0  0  0  0  0  0
   40.9517    6.5196   13.2971 C   0  0  0  0  0  0  0  0  0  0  0  0
   39.4321    6.3672   13.4765 C   0  0  0  0  0  0  0  0  0  0  0  0
   38.9186    7.2316   14.6399 C   0  0  0  0  0  0  0  0  0  0  0  0
   41.0347   11.0942   16.4477 C   0  0  0  0  0  0  0  0  0  0  0  0
   43.6360   14.0254   16.9149 S   0  0  0  0  0  0  0  0  0  0  0  0
   43.3652   15.3253   15.7666 C   0  0  0  0  0  0  0  0  0  0  0  0
   44.0486   16.6108   16.0385 C   0  0  0  0  0  0  0  0  0  0  0  0
   43.8781   17.5598   15.2428 O   0  0  0  0  0  0  0  0  0  0  0  0
   44.7767   16.7158   17.0512 O   0  0  0  0  0  0  0  0  0  0  0  0
   40.7676   17.9904   11.3300 H   0  0  0  0  0  0  0  0  0  0  0  0
   40.8042   16.8500   14.9765 H   0  0  0  0  0  0  0  0  0  0  0  0
   40.0421   15.4671   14.1201 H   0  0  0  0  0  0  0  0  0  0  0  0
   44.3798   11.1250   16.9849 H   0  0  0  0  0  0  0  0  0  0  0  0
   43.8814    8.8256   17.7327 H   0  0  0  0  0  0  0  0  0  0  0  0
   41.7986    8.0839   16.6636 H   0  0  0  0  0  0  0  0  0  0  0  0
   41.5104    8.6735   18.3357 H   0  0  0  0  0  0  0  0  0  0  0  0
   39.6900    7.5483   17.9952 H   0  0  0  0  0  0  0  0  0  0  0  0
   38.0963    7.6958   17.1797 H   0  0  0  0  0  0  0  0  0  0  0  0
   39.4532    5.8723   16.2253 H   0  0  0  0  0  0  0  0  0  0  0  0
   41.4206    8.1211   15.5574 H   0  0  0  0  0  0  0  0  0  0  0  0
   41.6915    6.7550   16.6920 H   0  0  0  0  0  0  0  0  0  0  0  0
   42.7741    6.3979   14.4551 H   0  0  0  0  0  0  0  0  0  0  0  0
   41.5537    5.1406   14.8505 H   0  0  0  0  0  0  0  0  0  0  0  0
   41.1754    7.5542   12.9979 H   0  0  0  0  0  0  0  0  0  0  0  0
   41.2910    5.8290   12.5109 H   0  0  0  0  0  0  0  0  0  0  0  0
   38.9286    6.6783   12.5493 H   0  0  0  0  0  0  0  0  0  0  0  0
   39.1996    5.3122   13.6838 H   0  0  0  0  0  0  0  0  0  0  0  0
   37.8461    7.0355   14.7861 H   0  0  0  0  0  0  0  0  0  0  0  0
   39.0666    8.2927   14.3907 H   0  0  0  0  0  0  0  0  0  0  0  0
   40.2354   11.7370   16.1096 H   0  0  0  0  0  0  0  0  0  0  0  0
   45.1432   17.5915   17.0889 H   0  0  0  0  0  0  0  0  0  0  0  0
  1  2  2  0  0  0  0
  2  3  1  0  0  0  0
  2  4  1  0  0  0  0
  4  5  1  0  0  0  0
  5  6  1  0  0  0  0
  6 25  2  0  0  0  0
  6  7  1  0  0  0  0
  7  8  1  0  0  0  0
  7  9  2  0  0  0  0
  9 10  1  0  0  0  0
  9 24  1  0  0  0  0
 10 23  2  0  0  0  0
 10 11  1  0  0  0  0
 11 12  2  0  0  0  0
 12 13  1  0  0  0  0
 13 14  1  0  0  0  0
 14 15  2  0  0  0  0
 14 23  1  0  0  0  0
 15 16  1  0  0  0  0
 16 17  1  0  0  0  0
 17 22  1  0  0  0  0
 17 18  1  0  0  0  0
 18 19  1  0  0  0  0
 19 20  1  0  0  0  0
 20 21  1  0  0  0  0
 21 22  1  0  0  0  0
 24 25  1  0  0  0  0
 25 26  1  0  0  0  0
 26 27  2  0  0  0  0
 26 28  1  0  0  0  0
  3 29  1  0  0  0  0
  4 30  1  0  0  0  0
  4 31  1  0  0  0  0
 11 32  1  0  0  0  0
 12 33  1  0  0  0  0
 13 34  1  0  0  0  0
 13 35  1  0  0  0  0
 16 36  1  0  0  0  0
 16 37  1  0  0  0  0
 17 38  1  0  0  0  0
 18 39  1  0  0  0  0
 18 40  1  0  0  0  0
 19 41  1  0  0  0  0
 19 42  1  0  0  0  0
 20 43  1  0  0  0  0
 20 44  1  0  0  0  0
 21 45  1  0  0  0  0
 21 46  1  0  0  0  0
 22 47  1  0  0  0  0
 22 48  1  0  0  0  0
 23 49  1  0  0  0  0
 28 50  1  0  0  0  0
M  END
> <i_m_stars>
2

> <r_user_dG.exp>
-9.11205847715563

$$$$
23474
  -OEChem-05162309453D
 Structure written by MMmdl.
 50 52  0     0  0  0  0  0  0999 V2000
   39.1872   17.7319   12.9711 O   0  0  0  0  0  0  0  0  0  0  0  0
   40.3302   17.2264   12.9065 C   0  0  0  0  0  0  0  0  0  0  0  0
   41.1481   17.4091   11.9779 O   0  0  0  0  0  0  0  0  0  0  0  0
   40.7697   16.2873   14.0319 C   0  0  0  0  0  0  0  0  0  0  0  0
   42.0557   15.7410   13.7696 O   0  0  0  0  0  0  0  0  0  0  0  0
   42.5145   14.9212   14.7395 C   0  0  0  0  0  0  0  0  0  0  0  0
   42.1856   13.5746   14.8668 C   0  0  0  0  0  0  0  0  0  0  0  0
   41.1590   12.6662   13.5413 Br  0  0  0  0  0  0  0  0  0  0  0  0
   42.6245   12.9340   16.0147 C   0  0  0  0  0  0  0  0  0  0  0  0
   42.3443   11.5877   16.4784 C   0  0  0  0  0  0  0  0  0  0  0  0
   43.3652   10.7569   16.9470 C   0  0  0  0  0  0  0  0  0  0  0  0
   43.0859    9.4573   17.3660 C   0  0  0  0  0  0  0  0  0  0  0  0
   41.7792    8.9724   17.3118 C   0  0  0  0  0  0  0  0  0  0  0  0
   40.7401    9.7888   16.8448 C   0  0  0  0  0  0  0  0  0  0  0  0
   39.4485    9.2406   16.7948 N   0  0  0  0  0  0  0  0  0  0  0  0
   39.1815    7.8314   17.0618 C   0  0  0  0  0  0  0  0  0  0  0  0
   39.6686    6.9137   15.9440 C   0  0  0  0  0  0  0  0  0  0  0  0
   41.1881    7.0661   15.7647 C   0  0  0  0  0  0  0  0  0  0  0  0
   41.7017    6.2017   14.6013 C   0  0  0  0  0  0  0  0  0  0  0  0
   40.9517    6.5196   13.2971 C   0  0  0  0  0  0  0  0  0  0  0  0
   39.4321    6.3672   13.4765 C   0  0  0  0  0  0  0  0  0  0  0  0
   38.9186    7.2316   14.6399 C   0  0  0  0  0  0  0  0  0  0  0  0
   41.0347   11.0942   16.4477 C   0  0  0  0  0  0  0  0  0  0  0  0
   43.6360   14.0254   16.9149 S   0  0  0  0  0  0  0  0  0  0  0  0
   43.3652   15.3253   15.7666 C   0  0  0  0  0  0  0  0  0  0  0  0
   44.0486   16.6108   16.0385 C   0  0  0  0  0  0  0  0  0  0  0  0
   43.8781   17.5598   15.2428 O   0  0  0  0  0  0  0  0  0  0  0  0
   44.7767   16.7158   17.0512 O   0  0  0  0  0  0  0  0  0  0  0  0
   40.7676   17.9904   11.3300 H   0  0  0  0  0  0  0  0  0  0  0  0
   40.8042   16.8500   14.9765 H   0  0  0  0  0  0  0  0  0  0  0  0
   40.0421   15.4671   14.1201 H   0  0  0  0  0  0  0  0  0  0  0  0
   44.1016   10.6741   16.1341 H   0  0  0  0  0  0  0  0  0  0  0  0
   43.8221   11.2727   17.8045 H   0  0  0  0  0  0  0  0  0  0  0  0
   43.8814    8.8256   17.7327 H   0  0  0  0  0  0  0  0  0  0  0  0
   41.5671    7.9628   17.6313 H   0  0  0  0  0  0  0  0  0  0  0  0
   39.6900    7.5483   17.9952 H   0  0  0  0  0  0  0  0  0  0  0  0
   38.0963    7.6958   17.1797 H   0  0  0  0  0  0  0  0  0  0  0  0
   39.4532    5.8723   16.2253 H   0  0  0  0  0  0  0  0  0  0  0  0
   41.4206    8.1211   15.5574 H   0  0  0  0  0  0  0  0  0  0  0  0
   41.6915    6.7550   16.6920 H   0  0  0  0  0  0  0  0  0  0  0  0
   42.7741    6.3979   14.4551 H   0  0  0  0  0  0  0  0  0  0  0  0
   41.5537    5.1406   14.8505 H   0  0  0  0  0  0  0  0  0  0  0  0
   41.1754    7.5542   12.9979 H   0  0  0  0  0  0  0  0  0  0  0  0
   41.2910    5.8290   12.5109 H   0  0  0  0  0  0  0  0  0  0  0  0
   38.9286    6.6783   12.5493 H   0  0  0  0  0  0  0  0  0  0  0  0
   39.1996    5.3122   13.6838 H   0  0  0  0  0  0  0  0  0  0  0  0
   37.8461    7.0355   14.7861 H   0  0  0  0  0  0  0  0  0  0  0  0
   39.0666    8.2927   14.3907 H   0  0  0  0  0  0  0  0  0  0  0  0
   40.2354   11.7370   16.1096 H   0  0  0  0  0  0  0  0  0  0  0  0
   45.1432   17.5915   17.0889 H   0  0  0  0  0  0  0  0  0  0  0  0
  1  2  2  0  0  0  0
  2  3  1  0  0  0  0
  2  4  1  0  0  0  0
  4  5  1  0  0  0  0
  5  6  1  0  0  0  0
  6 25  2  0  0  0  0
  6  7  1  0  0  0  0
  7  8  1  0  0  0  0
  7  9  2  0  0  0  0
  9 10  1  0  0  0  0
  9 24  1  0  0  0  0
 10 23  2  0  0  0  0
 10 11  1  0  0  0  0
 11 12  1  0  0  0  0
 12 13  2  0  0  0  0
 13 14  1  0  0  0  0
 14 15  2  0  0  0  0
 14 23  1  0  0  0  0
 15 16  1  0  0  0  0
 16 17  1  0  0  0  0
 17 22  1  0  0  0  0
 17 18  1  0  0  0  0
 18 19  1  0  0  0  0
 19 20  1  0  0  0  0
 20 21  1  0  0  0  0
 21 22  1  0  0  0  0
 24 25  1  0  0  0  0
 25 26  1  0  0  0  0
 26 27  2  0  0  0  0
 26 28  1  0  0  0  0
  3 29  1  0  0  0  0
  4 30  1  0  0  0  0
  4 31  1  0  0  0  0
 11 32  1  0  0  0  0
 11 33  1  0  0  0  0
 12 34  1  0  0  0  0
 13 35  1  0  0  0  0
 16 36  1  0  0  0  0
 16 37  1  0  0  0  0
 17 38  1  0  0  0  0
 18 39  1  0  0  0  0
 18 40  1  0  0  0  0
 19 41  1  0  0  0  0
 19 42  1  0  0  0  0
 20 43  1  0  0  0  0
 20 44  1  0  0  0  0
 21 45  1  0  0  0  0
 21 46  1  0  0  0  0
 22 47  1  0  0  0  0
 22 48  1  0  0  0  0
 23 49  1  0  0  0  0
 28 50  1  0  0  0  0
M  END
> <i_m_stars>
2

> <r_user_dG.exp>
-9.11205847715563

$$$$
23474
  -OEChem-05162309453D
 Structure written by MMmdl.
 50 52  0     0  0  0  0  0  0999 V2000
   39.1872   17.7319   12.9711 O   0  0  0  0  0  0  0  0  0  0  0  0
   40.3302   17.2264   12.9065 C   0  0  0  0  0  0  0  0  0  0  0  0
   41.1481   17.4091   11.9779 O   0  0  0  0  0  0  0  0  0  0  0  0
   40.7697   16.2873   14.0319 C   0  0  0  0  0  0  0  0  0  0  0  0
   42.0557   15.7410   13.7696 O   0  0  0  0  0  0  0  0  0  0  0  0
   42.5145   14.9212   14.7395 C   0  0  0  0  0  0  0  0  0  0  0  0
   42.1856   13.5746   14.8668 C   0  0  0  0  0  0  0  0  0  0  0  0
   41.1590   12.6662   13.5413 Br  0  0  0  0  0  0  0  0  0  0  0  0
   42.6245   12.9340   16.0147 C   0  0  0  0  0  0  0  0  0  0  0  0
   42.3443   11.5877   16.4784 C   0  0  0  0  0  0  0  0  0  0  0  0
   43.3652   10.7569   16.9470 C   0  0  0  0  0  0  0  0  0  0  0  0
   43.0859    9.4573   17.3660 C   0  0  0  0  0  0  0  0  0  0  0  0
   41.7792    8.9724   17.3118 C   0  0  0  0  0  0  0  0  0  0  0  0
   40.7401    9.7888   16.8448 C   0  0  0  0  0  0  0  0  0  0  0  0
   39.4485    9.2406   16.7948 N   0  0  0  0  0  0  0  0  0  0  0  0
   39.1815    7.8314   17.0618 C   0  0  0  0  0  0  0  0  0  0  0  0
   39.6686    6.9137   15.9440 C   0  0  0  0  0  0  0  0  0  0  0  0
   41.1881    7.0661   15.7647 C   0  0  0  0  0  0  0  0  0  0  0  0
   41.7017    6.2017   14.6013 C   0  0  0  0  0  0  0  0  0  0  0  0
   40.9517    6.5196   13.2971 C   0  0  0  0  0  0  0  0  0  0  0  0
   39.4321    6.3672   13.4765 C   0  0  0  0  0  0  0  0  0  0  0  0
   38.9186    7.2316   14.6399 C   0  0  0  0  0  0  0  0  0  0  0  0
   41.0347   11.0942   16.4477 C   0  0  0  0  0  0  0  0  0  0  0  0
   43.6360   14.0254   16.9149 S   0  0  0  0  0  0  0  0  0  0  0  0
   43.3652   15.3253   15.7666 C   0  0  0  0  0  0  0  0  0  0  0  0
   44.0486   16.6108   16.0385 C   0  0  0  0  0  0  0  0  0  0  0  0
   43.8781   17.5598   15.2428 O   0  0  0  0  0  0  0  0  0  0  0  0
   44.7767   16.7158   17.0512 O   0  0  0  0  0  0  0  0  0  0  0  0
   40.7676   17.9904   11.3300 H   0  0  0  0  0  0  0  0  0  0  0  0
   40.8042   16.8500   14.9765 H   0  0  0  0  0  0  0  0  0  0  0  0
   40.0421   15.4671   14.1201 H   0  0  0  0  0  0  0  0  0  0  0  0
   44.3798   11.1250   16.9849 H   0  0  0  0  0  0  0  0  0  0  0  0
   43.8814    8.8256   17.7327 H   0  0  0  0  0  0  0  0  0  0  0  0
   41.5671    7.9628   17.6313 H   0  0  0  0  0  0  0  0  0  0  0  0
   39.6900    7.5483   17.9952 H   0  0  0  0  0  0  0  0  0  0  0  0
   38.0963    7.6958   17.1797 H   0  0  0  0  0  0  0  0  0  0  0  0
   39.4532    5.8723   16.2253 H   0  0  0  0  0  0  0  0  0  0  0  0
   41.4206    8.1211   15.5574 H   0  0  0  0  0  0  0  0  0  0  0  0
   41.6915    6.7550   16.6920 H   0  0  0  0  0  0  0  0  0  0  0  0
   42.7741    6.3979   14.4551 H   0  0  0  0  0  0  0  0  0  0  0  0
   41.5537    5.1406   14.8505 H   0  0  0  0  0  0  0  0  0  0  0  0
   41.1754    7.5542   12.9979 H   0  0  0  0  0  0  0  0  0  0  0  0
   41.2910    5.8290   12.5109 H   0  0  0  0  0  0  0  0  0  0  0  0
   38.9286    6.6783   12.5493 H   0  0  0  0  0  0  0  0  0  0  0  0
   39.1996    5.3122   13.6838 H   0  0  0  0  0  0  0  0  0  0  0  0
   37.8461    7.0355   14.7861 H   0  0  0  0  0  0  0  0  0  0  0  0
   39.0666    8.2927   14.3907 H   0  0  0  0  0  0  0  0  0  0  0  0
   40.4376   11.7571   17.0911 H   0  0  0  0  0  0  0  0  0  0  0  0
   40.6918   11.1873   15.4067 H   0  0  0  0  0  0  0  0  0  0  0  0
   45.1432   17.5915   17.0889 H   0  0  0  0  0  0  0  0  0  0  0  0
  1  2  2  0  0  0  0
  2  3  1  0  0  0  0
  2  4  1  0  0  0  0
  4  5  1  0  0  0  0
  5  6  1  0  0  0  0
  6 25  2  0  0  0  0
  6  7  1  0  0  0  0
  7  8  1  0  0  0  0
  7  9  2  0  0  0  0
  9 10  1  0  0  0  0
  9 24  1  0  0  0  0
 10 23  1  0  0  0  0
 10 11  2  0  0  0  0
 11 12  1  0  0  0  0
 12 13  2  0  0  0  0
 13 14  1  0  0  0  0
 14 15  2  0  0  0  0
 14 23  1  0  0  0  0
 15 16  1  0  0  0  0
 16 17  1  0  0  0  0
 17 22  1  0  0  0  0
 17 18  1  0  0  0  0
 18 19  1  0  0  0  0
 19 20  1  0  0  0  0
 20 21  1  0  0  0  0
 21 22  1  0  0  0  0
 24 25  1  0  0  0  0
 25 26  1  0  0  0  0
 26 27  2  0  0  0  0
 26 28  1  0  0  0  0
  3 29  1  0  0  0  0
  4 30  1  0  0  0  0
  4 31  1  0  0  0  0
 11 32  1  0  0  0  0
 12 33  1  0  0  0  0
 13 34  1  0  0  0  0
 16 35  1  0  0  0  0
 16 36  1  0  0  0  0
 17 37  1  0  0  0  0
 18 38  1  0  0  0  0
 18 39  1  0  0  0  0
 19 40  1  0  0  0  0
 19 41  1  0  0  0  0
 20 42  1  0  0  0  0
 20 43  1  0  0  0  0
 21 44  1  0  0  0  0
 21 45  1  0  0  0  0
 22 46  1  0  0  0  0
 22 47  1  0  0  0  0
 23 48  1  0  0  0  0
 23 49  1  0  0  0  0
 28 50  1  0  0  0  0
M  END
> <i_m_stars>
2

> <r_user_dG.exp>
-9.11205847715563

$$$$
