23473
  -OEChem-05162309453D
 Structure written by MMmdl.
 43 45  0     0  0  0  0  0  0999 V2000
   41.1487   17.2240   11.7776 O   0  0  0  0  0  0  0  0  0  0  0  0
   40.3529   17.1026   12.7358 C   0  0  0  0  0  0  0  0  0  0  0  0
   39.2219   17.6321   12.8053 O   0  0  0  0  0  0  0  0  0  0  0  0
   40.7697   16.2194   13.9140 C   0  0  0  0  0  0  0  0  0  0  0  0
   42.0931   15.7293   13.7432 O   0  0  0  0  0  0  0  0  0  0  0  0
   42.5145   14.9212   14.7395 C   0  0  0  0  0  0  0  0  0  0  0  0
   42.1856   13.5746   14.8668 C   0  0  0  0  0  0  0  0  0  0  0  0
   41.2074   12.6499   13.5167 Br  0  0  0  0  0  0  0  0  0  0  0  0
   42.6245   12.9340   16.0147 C   0  0  0  0  0  0  0  0  0  0  0  0
   42.3443   11.5877   16.4784 C   0  0  0  0  0  0  0  0  0  0  0  0
   43.3652   10.7569   16.9470 C   0  0  0  0  0  0  0  0  0  0  0  0
   43.0859    9.4573   17.3660 C   0  0  0  0  0  0  0  0  0  0  0  0
   41.7792    8.9724   17.3118 C   0  0  0  0  0  0  0  0  0  0  0  0
   40.7401    9.7888   16.8448 C   0  0  0  0  0  0  0  0  0  0  0  0
   39.3981    9.3768   16.7741 O   0  0  0  0  0  0  0  0  0  0  0  0
   38.9977    7.9742   16.7120 C   0  0  0  0  0  0  0  0  0  0  0  0
   39.0447    7.4076   15.2989 C   0  0  0  0  0  0  0  0  0  0  0  0
   40.2643    7.0598   14.7072 C   0  0  0  0  0  0  0  0  0  0  0  0
   40.2940    6.5235   13.4197 C   0  0  0  0  0  0  0  0  0  0  0  0
   39.1061    6.3134   12.7236 C   0  0  0  0  0  0  0  0  0  0  0  0
   37.8875    6.6562   13.3069 C   0  0  0  0  0  0  0  0  0  0  0  0
   37.8553    7.2050   14.5894 C   0  0  0  0  0  0  0  0  0  0  0  0
   41.0347   11.0942   16.4477 C   0  0  0  0  0  0  0  0  0  0  0  0
   43.6360   14.0254   16.9149 S   0  0  0  0  0  0  0  0  0  0  0  0
   43.3652   15.3253   15.7666 C   0  0  0  0  0  0  0  0  0  0  0  0
   44.0488   16.6108   16.0384 C   0  0  0  0  0  0  0  0  0  0  0  0
   43.8750   17.5611   15.2449 O   0  0  0  0  0  0  0  0  0  0  0  0
   44.7786   16.7152   17.0498 O   0  0  0  0  0  0  0  0  0  0  0  0
   39.0607   18.1401   12.0189 H   0  0  0  0  0  0  0  0  0  0  0  0
   40.7223   16.8105   14.8405 H   0  0  0  0  0  0  0  0  0  0  0  0
   40.0777   15.3674   13.9868 H   0  0  0  0  0  0  0  0  0  0  0  0
   44.3798   11.1250   16.9849 H   0  0  0  0  0  0  0  0  0  0  0  0
   43.8814    8.8256   17.7327 H   0  0  0  0  0  0  0  0  0  0  0  0
   41.5671    7.9628   17.6313 H   0  0  0  0  0  0  0  0  0  0  0  0
   39.6758    7.3869   17.3486 H   0  0  0  0  0  0  0  0  0  0  0  0
   37.9692    7.8854   17.0920 H   0  0  0  0  0  0  0  0  0  0  0  0
   41.1865    7.2072   15.2497 H   0  0  0  0  0  0  0  0  0  0  0  0
   41.2392    6.2710   12.9622 H   0  0  0  0  0  0  0  0  0  0  0  0
   39.1292    5.8851   11.7324 H   0  0  0  0  0  0  0  0  0  0  0  0
   36.9668    6.4968   12.7654 H   0  0  0  0  0  0  0  0  0  0  0  0
   36.9096    7.4743   15.0360 H   0  0  0  0  0  0  0  0  0  0  0  0
   40.2354   11.7370   16.1096 H   0  0  0  0  0  0  0  0  0  0  0  0
   45.1435   17.5915   17.0885 H   0  0  0  0  0  0  0  0  0  0  0  0
  1  2  2  0  0  0  0
  2  3  1  0  0  0  0
  2  4  1  0  0  0  0
  4  5  1  0  0  0  0
  5  6  1  0  0  0  0
  6 25  2  0  0  0  0
  6  7  1  0  0  0  0
  7  8  1  0  0  0  0
  7  9  2  0  0  0  0
  9 10  1  0  0  0  0
  9 24  1  0  0  0  0
 10 23  2  0  0  0  0
 10 11  1  0  0  0  0
 11 12  2  0  0  0  0
 12 13  1  0  0  0  0
 13 14  2  0  0  0  0
 14 15  1  0  0  0  0
 14 23  1  0  0  0  0
 15 16  1  0  0  0  0
 16 17  1  0  0  0  0
 17 22  2  0  0  0  0
 17 18  1  0  0  0  0
 18 19  2  0  0  0  0
 19 20  1  0  0  0  0
 20 21  2  0  0  0  0
 21 22  1  0  0  0  0
 24 25  1  0  0  0  0
 25 26  1  0  0  0  0
 26 27  2  0  0  0  0
 26 28  1  0  0  0  0
  3 29  1  0  0  0  0
  4 30  1  0  0  0  0
  4 31  1  0  0  0  0
 11 32  1  0  0  0  0
 12 33  1  0  0  0  0
 13 34  1  0  0  0  0
 16 35  1  0  0  0  0
 16 36  1  0  0  0  0
 18 37  1  0  0  0  0
 19 38  1  0  0  0  0
 20 39  1  0  0  0  0
 21 40  1  0  0  0  0
 22 41  1  0  0  0  0
 23 42  1  0  0  0  0
 28 43  1  0  0  0  0
M  END
> <i_m_stars>
2

> <r_user_dG.exp>
-8.3891313751788

$$$$
