23471
  -OEChem-05162309453D
 Structure written by MMmdl.
 37 38  0     0  0  0  0  0  0999 V2000
   37.0448    9.0699   15.8294 C   0  0  0  0  0  0  0  0  0  0  0  0
   37.5083    8.2225   16.8671 O   0  0  0  0  0  0  0  0  0  0  0  0
   38.8187    8.1726   17.1493 C   0  0  0  0  0  0  0  0  0  0  0  0
   39.3752    7.2244   17.7047 O   0  0  0  0  0  0  0  0  0  0  0  0
   39.3913    9.3618   16.7178 N   0  0  0  0  0  0  0  0  0  0  0  0
   40.7401    9.7888   16.8448 C   0  0  0  0  0  0  0  0  0  0  0  0
   41.7792    8.9724   17.3118 C   0  0  0  0  0  0  0  0  0  0  0  0
   43.0859    9.4573   17.3660 C   0  0  0  0  0  0  0  0  0  0  0  0
   43.3652   10.7569   16.9470 C   0  0  0  0  0  0  0  0  0  0  0  0
   42.3443   11.5877   16.4784 C   0  0  0  0  0  0  0  0  0  0  0  0
   42.6245   12.9340   16.0147 C   0  0  0  0  0  0  0  0  0  0  0  0
   43.6360   14.0254   16.9149 S   0  0  0  0  0  0  0  0  0  0  0  0
   43.3652   15.3253   15.7666 C   0  0  0  0  0  0  0  0  0  0  0  0
   44.0464   16.6111   16.0505 C   0  0  0  0  0  0  0  0  0  0  0  0
   44.7740   16.6941   17.0640 O   0  0  0  0  0  0  0  0  0  0  0  0
   43.8841   17.5767   15.2709 O   0  0  0  0  0  0  0  0  0  0  0  0
   42.5145   14.9212   14.7395 C   0  0  0  0  0  0  0  0  0  0  0  0
   42.0409   15.7421   13.7728 O   0  0  0  0  0  0  0  0  0  0  0  0
   40.7605   16.3124   14.0330 C   0  0  0  0  0  0  0  0  0  0  0  0
   40.3270   17.2432   12.8986 C   0  0  0  0  0  0  0  0  0  0  0  0
   39.2130   17.8008   13.0106 O   0  0  0  0  0  0  0  0  0  0  0  0
   41.1154   17.3805   11.9374 O   0  0  0  0  0  0  0  0  0  0  0  0
   42.1856   13.5746   14.8668 C   0  0  0  0  0  0  0  0  0  0  0  0
   41.1965   12.6902   13.4976 Br  0  0  0  0  0  0  0  0  0  0  0  0
   41.0347   11.0942   16.4477 C   0  0  0  0  0  0  0  0  0  0  0  0
   35.9519    8.9801   15.7426 H   0  0  0  0  0  0  0  0  0  0  0  0
   37.3097   10.1120   16.0614 H   0  0  0  0  0  0  0  0  0  0  0  0
   37.5134    8.7754   14.8788 H   0  0  0  0  0  0  0  0  0  0  0  0
   38.7741   10.0003   16.2581 H   0  0  0  0  0  0  0  0  0  0  0  0
   41.5671    7.9628   17.6313 H   0  0  0  0  0  0  0  0  0  0  0  0
   43.8814    8.8256   17.7327 H   0  0  0  0  0  0  0  0  0  0  0  0
   44.3798   11.1250   16.9849 H   0  0  0  0  0  0  0  0  0  0  0  0
   44.3847   18.3222   15.5810 H   0  0  0  0  0  0  0  0  0  0  0  0
   40.0219   15.5037   14.1353 H   0  0  0  0  0  0  0  0  0  0  0  0
   40.8075   16.8868   14.9699 H   0  0  0  0  0  0  0  0  0  0  0  0
   40.7384   17.9762   11.3006 H   0  0  0  0  0  0  0  0  0  0  0  0
   40.2354   11.7370   16.1096 H   0  0  0  0  0  0  0  0  0  0  0  0
  1  2  1  0  0  0  0
  2  3  1  0  0  0  0
  3  4  2  0  0  0  0
  3  5  1  0  0  0  0
  5  6  1  0  0  0  0
  6 25  2  0  0  0  0
  6  7  1  0  0  0  0
  7  8  2  0  0  0  0
  8  9  1  0  0  0  0
  9 10  2  0  0  0  0
 10 11  1  0  0  0  0
 10 25  1  0  0  0  0
 11 23  2  0  0  0  0
 11 12  1  0  0  0  0
 12 13  1  0  0  0  0
 13 14  1  0  0  0  0
 13 17  2  0  0  0  0
 14 15  2  0  0  0  0
 14 16  1  0  0  0  0
 17 18  1  0  0  0  0
 17 23  1  0  0  0  0
 18 19  1  0  0  0  0
 19 20  1  0  0  0  0
 20 21  2  0  0  0  0
 20 22  1  0  0  0  0
 23 24  1  0  0  0  0
  1 26  1  0  0  0  0
  1 27  1  0  0  0  0
  1 28  1  0  0  0  0
  5 29  1  0  0  0  0
  7 30  1  0  0  0  0
  8 31  1  0  0  0  0
  9 32  1  0  0  0  0
 16 33  1  0  0  0  0
 19 34  1  0  0  0  0
 19 35  1  0  0  0  0
 22 36  1  0  0  0  0
 25 37  1  0  0  0  0
M  END
> <i_m_stars>
2

> <r_user_dG.exp>
-7.75184064198728

$$$$
23471
  -OEChem-05162309453D
 Structure written by MMmdl.
 37 38  0     0  0  0  0  0  0999 V2000
   37.0448    9.0699   15.8294 C   0  0  0  0  0  0  0  0  0  0  0  0
   37.5083    8.2225   16.8671 O   0  0  0  0  0  0  0  0  0  0  0  0
   38.8187    8.1726   17.1493 C   0  0  0  0  0  0  0  0  0  0  0  0
   39.3752    7.2244   17.7047 O   0  0  0  0  0  0  0  0  0  0  0  0
   39.3913    9.3618   16.7178 N   0  0  0  0  0  0  0  0  0  0  0  0
   40.7401    9.7888   16.8448 C   0  0  0  0  0  0  0  0  0  0  0  0
   41.7792    8.9724   17.3118 C   0  0  0  0  0  0  0  0  0  0  0  0
   43.0859    9.4573   17.3660 C   0  0  0  0  0  0  0  0  0  0  0  0
   43.3652   10.7569   16.9470 C   0  0  0  0  0  0  0  0  0  0  0  0
   42.3443   11.5877   16.4784 C   0  0  0  0  0  0  0  0  0  0  0  0
   42.6245   12.9340   16.0147 C   0  0  0  0  0  0  0  0  0  0  0  0
   43.6360   14.0254   16.9149 S   0  0  0  0  0  0  0  0  0  0  0  0
   43.3652   15.3253   15.7666 C   0  0  0  0  0  0  0  0  0  0  0  0
   44.0464   16.6111   16.0505 C   0  0  0  0  0  0  0  0  0  0  0  0
   44.7740   16.6941   17.0640 O   0  0  0  0  0  0  0  0  0  0  0  0
   43.8841   17.5767   15.2709 O   0  0  0  0  0  0  0  0  0  0  0  0
   42.5145   14.9212   14.7395 C   0  0  0  0  0  0  0  0  0  0  0  0
   42.0409   15.7421   13.7728 O   0  0  0  0  0  0  0  0  0  0  0  0
   40.7605   16.3124   14.0330 C   0  0  0  0  0  0  0  0  0  0  0  0
   40.3270   17.2432   12.8986 C   0  0  0  0  0  0  0  0  0  0  0  0
   39.2130   17.8008   13.0106 O   0  0  0  0  0  0  0  0  0  0  0  0
   41.1154   17.3805   11.9374 O   0  0  0  0  0  0  0  0  0  0  0  0
   42.1856   13.5746   14.8668 C   0  0  0  0  0  0  0  0  0  0  0  0
   41.1965   12.6902   13.4976 Br  0  0  0  0  0  0  0  0  0  0  0  0
   41.0347   11.0942   16.4477 C   0  0  0  0  0  0  0  0  0  0  0  0
   35.9519    8.9801   15.7426 H   0  0  0  0  0  0  0  0  0  0  0  0
   37.3097   10.1120   16.0614 H   0  0  0  0  0  0  0  0  0  0  0  0
   37.5134    8.7754   14.8788 H   0  0  0  0  0  0  0  0  0  0  0  0
   40.3017    7.4118   17.7996 H   0  0  0  0  0  0  0  0  0  0  0  0
   41.5671    7.9628   17.6313 H   0  0  0  0  0  0  0  0  0  0  0  0
   43.8814    8.8256   17.7327 H   0  0  0  0  0  0  0  0  0  0  0  0
   44.3798   11.1250   16.9849 H   0  0  0  0  0  0  0  0  0  0  0  0
   44.3847   18.3222   15.5810 H   0  0  0  0  0  0  0  0  0  0  0  0
   40.0219   15.5037   14.1353 H   0  0  0  0  0  0  0  0  0  0  0  0
   40.8075   16.8868   14.9699 H   0  0  0  0  0  0  0  0  0  0  0  0
   40.7384   17.9762   11.3006 H   0  0  0  0  0  0  0  0  0  0  0  0
   40.2354   11.7370   16.1096 H   0  0  0  0  0  0  0  0  0  0  0  0
  1  2  1  0  0  0  0
  2  3  1  0  0  0  0
  3  4  1  0  0  0  0
  3  5  2  0  0  0  0
  5  6  1  0  0  0  0
  6 25  2  0  0  0  0
  6  7  1  0  0  0  0
  7  8  2  0  0  0  0
  8  9  1  0  0  0  0
  9 10  2  0  0  0  0
 10 11  1  0  0  0  0
 10 25  1  0  0  0  0
 11 23  2  0  0  0  0
 11 12  1  0  0  0  0
 12 13  1  0  0  0  0
 13 14  1  0  0  0  0
 13 17  2  0  0  0  0
 14 15  2  0  0  0  0
 14 16  1  0  0  0  0
 17 18  1  0  0  0  0
 17 23  1  0  0  0  0
 18 19  1  0  0  0  0
 19 20  1  0  0  0  0
 20 21  2  0  0  0  0
 20 22  1  0  0  0  0
 23 24  1  0  0  0  0
  1 26  1  0  0  0  0
  1 27  1  0  0  0  0
  1 28  1  0  0  0  0
  4 29  1  0  0  0  0
  7 30  1  0  0  0  0
  8 31  1  0  0  0  0
  9 32  1  0  0  0  0
 16 33  1  0  0  0  0
 19 34  1  0  0  0  0
 19 35  1  0  0  0  0
 22 36  1  0  0  0  0
 25 37  1  0  0  0  0
M  END
> <i_m_stars>
2

> <r_user_dG.exp>
-7.75184064198728

$$$$
23471
  -OEChem-05162309453D
 Structure written by MMmdl.
 37 38  0     0  0  0  0  0  0999 V2000
   37.0448    9.0699   15.8294 C   0  0  0  0  0  0  0  0  0  0  0  0
   37.5083    8.2225   16.8671 O   0  0  0  0  0  0  0  0  0  0  0  0
   38.8187    8.1726   17.1493 C   0  0  0  0  0  0  0  0  0  0  0  0
   39.3752    7.2244   17.7047 O   0  0  0  0  0  0  0  0  0  0  0  0
   39.3913    9.3618   16.7178 N   0  0  0  0  0  0  0  0  0  0  0  0
   40.7401    9.7888   16.8448 C   0  0  0  0  0  0  0  0  0  0  0  0
   41.7792    8.9724   17.3118 C   0  0  0  0  0  0  0  0  0  0  0  0
   43.0859    9.4573   17.3660 C   0  0  0  0  0  0  0  0  0  0  0  0
   43.3652   10.7569   16.9470 C   0  0  0  0  0  0  0  0  0  0  0  0
   42.3443   11.5877   16.4784 C   0  0  0  0  0  0  0  0  0  0  0  0
   42.6245   12.9340   16.0147 C   0  0  0  0  0  0  0  0  0  0  0  0
   43.6360   14.0254   16.9149 S   0  0  0  0  0  0  0  0  0  0  0  0
   43.3652   15.3253   15.7666 C   0  0  0  0  0  0  0  0  0  0  0  0
   44.0464   16.6111   16.0505 C   0  0  0  0  0  0  0  0  0  0  0  0
   44.7740   16.6941   17.0640 O   0  0  0  0  0  0  0  0  0  0  0  0
   43.8841   17.5767   15.2709 O   0  0  0  0  0  0  0  0  0  0  0  0
   42.5145   14.9212   14.7395 C   0  0  0  0  0  0  0  0  0  0  0  0
   42.0409   15.7421   13.7728 O   0  0  0  0  0  0  0  0  0  0  0  0
   40.7605   16.3124   14.0330 C   0  0  0  0  0  0  0  0  0  0  0  0
   40.3270   17.2432   12.8986 C   0  0  0  0  0  0  0  0  0  0  0  0
   39.2130   17.8008   13.0106 O   0  0  0  0  0  0  0  0  0  0  0  0
   41.1154   17.3805   11.9374 O   0  0  0  0  0  0  0  0  0  0  0  0
   42.1856   13.5746   14.8668 C   0  0  0  0  0  0  0  0  0  0  0  0
   41.1965   12.6902   13.4976 Br  0  0  0  0  0  0  0  0  0  0  0  0
   41.0347   11.0942   16.4477 C   0  0  0  0  0  0  0  0  0  0  0  0
   35.9519    8.9801   15.7426 H   0  0  0  0  0  0  0  0  0  0  0  0
   37.3097   10.1120   16.0614 H   0  0  0  0  0  0  0  0  0  0  0  0
   37.5134    8.7754   14.8788 H   0  0  0  0  0  0  0  0  0  0  0  0
   41.5104    8.6735   18.3357 H   0  0  0  0  0  0  0  0  0  0  0  0
   41.7986    8.0839   16.6636 H   0  0  0  0  0  0  0  0  0  0  0  0
   43.8814    8.8256   17.7327 H   0  0  0  0  0  0  0  0  0  0  0  0
   44.3798   11.1250   16.9849 H   0  0  0  0  0  0  0  0  0  0  0  0
   44.3847   18.3222   15.5810 H   0  0  0  0  0  0  0  0  0  0  0  0
   40.0219   15.5037   14.1353 H   0  0  0  0  0  0  0  0  0  0  0  0
   40.8075   16.8868   14.9699 H   0  0  0  0  0  0  0  0  0  0  0  0
   40.7384   17.9762   11.3006 H   0  0  0  0  0  0  0  0  0  0  0  0
   40.2354   11.7370   16.1096 H   0  0  0  0  0  0  0  0  0  0  0  0
  1  2  1  0  0  0  0
  2  3  1  0  0  0  0
  3  4  2  0  0  0  0
  3  5  1  0  0  0  0
  5  6  2  0  0  0  0
  6 25  1  0  0  0  0
  6  7  1  0  0  0  0
  7  8  1  0  0  0  0
  8  9  2  0  0  0  0
  9 10  1  0  0  0  0
 10 11  1  0  0  0  0
 10 25  2  0  0  0  0
 11 23  2  0  0  0  0
 11 12  1  0  0  0  0
 12 13  1  0  0  0  0
 13 14  1  0  0  0  0
 13 17  2  0  0  0  0
 14 15  2  0  0  0  0
 14 16  1  0  0  0  0
 17 18  1  0  0  0  0
 17 23  1  0  0  0  0
 18 19  1  0  0  0  0
 19 20  1  0  0  0  0
 20 21  2  0  0  0  0
 20 22  1  0  0  0  0
 23 24  1  0  0  0  0
  1 26  1  0  0  0  0
  1 27  1  0  0  0  0
  1 28  1  0  0  0  0
  7 29  1  0  0  0  0
  7 30  1  0  0  0  0
  8 31  1  0  0  0  0
  9 32  1  0  0  0  0
 16 33  1  0  0  0  0
 19 34  1  0  0  0  0
 19 35  1  0  0  0  0
 22 36  1  0  0  0  0
 25 37  1  0  0  0  0
M  END
> <i_m_stars>
2

> <r_user_dG.exp>
-7.75184064198728

$$$$
23471
  -OEChem-05162309453D
 Structure written by MMmdl.
 37 38  0     0  0  0  0  0  0999 V2000
   37.0448    9.0699   15.8294 C   0  0  0  0  0  0  0  0  0  0  0  0
   37.5083    8.2225   16.8671 O   0  0  0  0  0  0  0  0  0  0  0  0
   38.8187    8.1726   17.1493 C   0  0  0  0  0  0  0  0  0  0  0  0
   39.3752    7.2244   17.7047 O   0  0  0  0  0  0  0  0  0  0  0  0
   39.3913    9.3618   16.7178 N   0  0  0  0  0  0  0  0  0  0  0  0
   40.7401    9.7888   16.8448 C   0  0  0  0  0  0  0  0  0  0  0  0
   41.7792    8.9724   17.3118 C   0  0  0  0  0  0  0  0  0  0  0  0
   43.0859    9.4573   17.3660 C   0  0  0  0  0  0  0  0  0  0  0  0
   43.3652   10.7569   16.9470 C   0  0  0  0  0  0  0  0  0  0  0  0
   42.3443   11.5877   16.4784 C   0  0  0  0  0  0  0  0  0  0  0  0
   42.6245   12.9340   16.0147 C   0  0  0  0  0  0  0  0  0  0  0  0
   43.6360   14.0254   16.9149 S   0  0  0  0  0  0  0  0  0  0  0  0
   43.3652   15.3253   15.7666 C   0  0  0  0  0  0  0  0  0  0  0  0
   44.0464   16.6111   16.0505 C   0  0  0  0  0  0  0  0  0  0  0  0
   44.7740   16.6941   17.0640 O   0  0  0  0  0  0  0  0  0  0  0  0
   43.8841   17.5767   15.2709 O   0  0  0  0  0  0  0  0  0  0  0  0
   42.5145   14.9212   14.7395 C   0  0  0  0  0  0  0  0  0  0  0  0
   42.0409   15.7421   13.7728 O   0  0  0  0  0  0  0  0  0  0  0  0
   40.7605   16.3124   14.0330 C   0  0  0  0  0  0  0  0  0  0  0  0
   40.3270   17.2432   12.8986 C   0  0  0  0  0  0  0  0  0  0  0  0
   39.2130   17.8008   13.0106 O   0  0  0  0  0  0  0  0  0  0  0  0
   41.1154   17.3805   11.9374 O   0  0  0  0  0  0  0  0  0  0  0  0
   42.1856   13.5746   14.8668 C   0  0  0  0  0  0  0  0  0  0  0  0
   41.1965   12.6902   13.4976 Br  0  0  0  0  0  0  0  0  0  0  0  0
   41.0347   11.0942   16.4477 C   0  0  0  0  0  0  0  0  0  0  0  0
   35.9519    8.9801   15.7426 H   0  0  0  0  0  0  0  0  0  0  0  0
   37.3097   10.1120   16.0614 H   0  0  0  0  0  0  0  0  0  0  0  0
   37.5134    8.7754   14.8788 H   0  0  0  0  0  0  0  0  0  0  0  0
   41.5671    7.9628   17.6313 H   0  0  0  0  0  0  0  0  0  0  0  0
   43.8814    8.8256   17.7327 H   0  0  0  0  0  0  0  0  0  0  0  0
   43.8221   11.2727   17.8045 H   0  0  0  0  0  0  0  0  0  0  0  0
   44.1016   10.6741   16.1341 H   0  0  0  0  0  0  0  0  0  0  0  0
   44.3847   18.3222   15.5810 H   0  0  0  0  0  0  0  0  0  0  0  0
   40.0219   15.5037   14.1353 H   0  0  0  0  0  0  0  0  0  0  0  0
   40.8075   16.8868   14.9699 H   0  0  0  0  0  0  0  0  0  0  0  0
   40.7384   17.9762   11.3006 H   0  0  0  0  0  0  0  0  0  0  0  0
   40.2354   11.7370   16.1096 H   0  0  0  0  0  0  0  0  0  0  0  0
  1  2  1  0  0  0  0
  2  3  1  0  0  0  0
  3  4  2  0  0  0  0
  3  5  1  0  0  0  0
  5  6  2  0  0  0  0
  6 25  1  0  0  0  0
  6  7  1  0  0  0  0
  7  8  2  0  0  0  0
  8  9  1  0  0  0  0
  9 10  1  0  0  0  0
 10 11  1  0  0  0  0
 10 25  2  0  0  0  0
 11 23  2  0  0  0  0
 11 12  1  0  0  0  0
 12 13  1  0  0  0  0
 13 14  1  0  0  0  0
 13 17  2  0  0  0  0
 14 15  2  0  0  0  0
 14 16  1  0  0  0  0
 17 18  1  0  0  0  0
 17 23  1  0  0  0  0
 18 19  1  0  0  0  0
 19 20  1  0  0  0  0
 20 21  2  0  0  0  0
 20 22  1  0  0  0  0
 23 24  1  0  0  0  0
  1 26  1  0  0  0  0
  1 27  1  0  0  0  0
  1 28  1  0  0  0  0
  7 29  1  0  0  0  0
  8 30  1  0  0  0  0
  9 31  1  0  0  0  0
  9 32  1  0  0  0  0
 16 33  1  0  0  0  0
 19 34  1  0  0  0  0
 19 35  1  0  0  0  0
 22 36  1  0  0  0  0
 25 37  1  0  0  0  0
M  END
> <i_m_stars>
2

> <r_user_dG.exp>
-7.75184064198728

$$$$
23471
  -OEChem-05162309453D
 Structure written by MMmdl.
 37 38  0     0  0  0  0  0  0999 V2000
   37.0448    9.0699   15.8294 C   0  0  0  0  0  0  0  0  0  0  0  0
   37.5083    8.2225   16.8671 O   0  0  0  0  0  0  0  0  0  0  0  0
   38.8187    8.1726   17.1493 C   0  0  0  0  0  0  0  0  0  0  0  0
   39.3752    7.2244   17.7047 O   0  0  0  0  0  0  0  0  0  0  0  0
   39.3913    9.3618   16.7178 N   0  0  0  0  0  0  0  0  0  0  0  0
   40.7401    9.7888   16.8448 C   0  0  0  0  0  0  0  0  0  0  0  0
   41.7792    8.9724   17.3118 C   0  0  0  0  0  0  0  0  0  0  0  0
   43.0859    9.4573   17.3660 C   0  0  0  0  0  0  0  0  0  0  0  0
   43.3652   10.7569   16.9470 C   0  0  0  0  0  0  0  0  0  0  0  0
   42.3443   11.5877   16.4784 C   0  0  0  0  0  0  0  0  0  0  0  0
   42.6245   12.9340   16.0147 C   0  0  0  0  0  0  0  0  0  0  0  0
   43.6360   14.0254   16.9149 S   0  0  0  0  0  0  0  0  0  0  0  0
   43.3652   15.3253   15.7666 C   0  0  0  0  0  0  0  0  0  0  0  0
   44.0464   16.6111   16.0505 C   0  0  0  0  0  0  0  0  0  0  0  0
   44.7740   16.6941   17.0640 O   0  0  0  0  0  0  0  0  0  0  0  0
   43.8841   17.5767   15.2709 O   0  0  0  0  0  0  0  0  0  0  0  0
   42.5145   14.9212   14.7395 C   0  0  0  0  0  0  0  0  0  0  0  0
   42.0409   15.7421   13.7728 O   0  0  0  0  0  0  0  0  0  0  0  0
   40.7605   16.3124   14.0330 C   0  0  0  0  0  0  0  0  0  0  0  0
   40.3270   17.2432   12.8986 C   0  0  0  0  0  0  0  0  0  0  0  0
   39.2130   17.8008   13.0106 O   0  0  0  0  0  0  0  0  0  0  0  0
   41.1154   17.3805   11.9374 O   0  0  0  0  0  0  0  0  0  0  0  0
   42.1856   13.5746   14.8668 C   0  0  0  0  0  0  0  0  0  0  0  0
   41.1965   12.6902   13.4976 Br  0  0  0  0  0  0  0  0  0  0  0  0
   41.0347   11.0942   16.4477 C   0  0  0  0  0  0  0  0  0  0  0  0
   35.9519    8.9801   15.7426 H   0  0  0  0  0  0  0  0  0  0  0  0
   37.3097   10.1120   16.0614 H   0  0  0  0  0  0  0  0  0  0  0  0
   37.5134    8.7754   14.8788 H   0  0  0  0  0  0  0  0  0  0  0  0
   41.5671    7.9628   17.6313 H   0  0  0  0  0  0  0  0  0  0  0  0
   43.8814    8.8256   17.7327 H   0  0  0  0  0  0  0  0  0  0  0  0
   44.3798   11.1250   16.9849 H   0  0  0  0  0  0  0  0  0  0  0  0
   44.3847   18.3222   15.5810 H   0  0  0  0  0  0  0  0  0  0  0  0
   40.0219   15.5037   14.1353 H   0  0  0  0  0  0  0  0  0  0  0  0
   40.8075   16.8868   14.9699 H   0  0  0  0  0  0  0  0  0  0  0  0
   40.7384   17.9762   11.3006 H   0  0  0  0  0  0  0  0  0  0  0  0
   40.6918   11.1873   15.4067 H   0  0  0  0  0  0  0  0  0  0  0  0
   40.4376   11.7571   17.0911 H   0  0  0  0  0  0  0  0  0  0  0  0
  1  2  1  0  0  0  0
  2  3  1  0  0  0  0
  3  4  2  0  0  0  0
  3  5  1  0  0  0  0
  5  6  2  0  0  0  0
  6 25  1  0  0  0  0
  6  7  1  0  0  0  0
  7  8  2  0  0  0  0
  8  9  1  0  0  0  0
  9 10  2  0  0  0  0
 10 11  1  0  0  0  0
 10 25  1  0  0  0  0
 11 23  2  0  0  0  0
 11 12  1  0  0  0  0
 12 13  1  0  0  0  0
 13 14  1  0  0  0  0
 13 17  2  0  0  0  0
 14 15  2  0  0  0  0
 14 16  1  0  0  0  0
 17 18  1  0  0  0  0
 17 23  1  0  0  0  0
 18 19  1  0  0  0  0
 19 20  1  0  0  0  0
 20 21  2  0  0  0  0
 20 22  1  0  0  0  0
 23 24  1  0  0  0  0
  1 26  1  0  0  0  0
  1 27  1  0  0  0  0
  1 28  1  0  0  0  0
  7 29  1  0  0  0  0
  8 30  1  0  0  0  0
  9 31  1  0  0  0  0
 16 32  1  0  0  0  0
 19 33  1  0  0  0  0
 19 34  1  0  0  0  0
 22 35  1  0  0  0  0
 25 36  1  0  0  0  0
 25 37  1  0  0  0  0
M  END
> <i_m_stars>
2

> <r_user_dG.exp>
-7.75184064198728

$$$$
