3b
  -OEChem-05162309453D
 Structure written by MMmdl.
 57 59  0     1  0  0  0  0  0999 V2000
   18.2837  -13.2167   21.6711 N   0  0  0  0  0  0  0  0  0  0  0  0
   18.1069  -11.9189   20.9899 C   0  0  2  0  0  0  0  0  0  0  0  0
   17.4006  -13.7476   22.5524 C   0  0  0  0  0  0  0  0  0  0  0  0
   16.4058  -13.1272   22.9305 O   0  0  0  0  0  0  0  0  0  0  0  0
   16.7158  -11.7247   20.3399 C   0  0  0  0  0  0  0  0  0  0  0  0
   16.2540  -12.5979   19.6030 O   0  0  0  0  0  0  0  0  0  0  0  0
   19.2212  -11.8811   19.9329 C   0  0  0  0  0  0  0  0  0  0  0  0
   17.6347  -15.1514   23.1434 C   0  0  2  0  0  0  0  0  0  0  0  0
   16.0668  -10.5871   20.6174 N   0  0  0  0  0  0  0  0  0  0  0  0
   20.3031  -12.8141   20.4369 C   0  0  0  0  0  0  0  0  0  0  0  0
   16.3852  -15.9256   23.0521 N   0  0  0  0  0  0  0  0  0  0  0  0
   18.1081  -15.0916   24.6149 C   0  0  0  0  0  0  0  0  0  0  0  0
   14.7238  -10.2228   20.1805 C   0  0  0  0  0  0  0  0  0  0  0  0
   19.5622  -13.8312   21.2959 C   0  0  0  0  0  0  0  0  0  0  0  0
   19.5374  -14.6118   24.8032 C   0  0  0  0  0  0  0  0  0  0  0  0
   13.6222  -10.7255   21.0990 C   0  0  0  0  0  0  0  0  0  0  0  0
   19.7921  -13.3153   25.2875 C   0  0  0  0  0  0  0  0  0  0  0  0
   13.0747   -9.8945   22.1043 C   0  0  0  0  0  0  0  0  0  0  0  0
   21.1061  -12.8369   25.4050 C   0  0  0  0  0  0  0  0  0  0  0  0
   12.0629  -10.3884   22.9643 C   0  0  0  0  0  0  0  0  0  0  0  0
   22.1857  -13.6674   25.0566 C   0  0  0  0  0  0  0  0  0  0  0  0
   11.5859  -11.7025   22.7805 C   0  0  0  0  0  0  0  0  0  0  0  0
   21.9450  -14.9812   24.6113 C   0  0  0  0  0  0  0  0  0  0  0  0
   12.1277  -12.5291   21.7812 C   0  0  0  0  0  0  0  0  0  0  0  0
   20.6234  -15.4537   24.4832 C   0  0  0  0  0  0  0  0  0  0  0  0
   13.1479  -12.0435   20.9456 C   0  0  0  0  0  0  0  0  0  0  0  0
   11.5078   -9.6034   24.1479 C   0  0  0  0  0  0  0  0  0  0  0  0
   12.0810   -8.1961   24.3903 C   0  0  0  0  0  0  0  0  0  0  0  0
   18.2745  -11.1024   21.7077 H   0  0  0  0  0  0  0  0  0  0  0  0
   18.8390  -12.2277   18.9614 H   0  0  0  0  0  0  0  0  0  0  0  0
   19.6151  -10.8594   19.8285 H   0  0  0  0  0  0  0  0  0  0  0  0
   18.4147  -15.6511   22.5502 H   0  0  0  0  0  0  0  0  0  0  0  0
   16.5522   -9.9192   21.1816 H   0  0  0  0  0  0  0  0  0  0  0  0
   20.8101  -13.3110   19.5966 H   0  0  0  0  0  0  0  0  0  0  0  0
   21.0423  -12.2635   21.0373 H   0  0  0  0  0  0  0  0  0  0  0  0
   16.5295  -16.8385   23.4340 H   0  0  0  0  0  0  0  0  0  0  0  0
   15.6658  -15.4590   23.5666 H   0  0  0  0  0  0  0  0  0  0  0  0
   17.4423  -14.4075   25.1615 H   0  0  0  0  0  0  0  0  0  0  0  0
   18.0267  -16.1019   25.0423 H   0  0  0  0  0  0  0  0  0  0  0  0
   14.6607   -9.1257   20.1315 H   0  0  0  0  0  0  0  0  0  0  0  0
   14.5589  -10.6446   19.1781 H   0  0  0  0  0  0  0  0  0  0  0  0
   20.1488  -14.0653   22.1965 H   0  0  0  0  0  0  0  0  0  0  0  0
   19.3856  -14.7536   20.7233 H   0  0  0  0  0  0  0  0  0  0  0  0
   18.9660  -12.6806   25.5723 H   0  0  0  0  0  0  0  0  0  0  0  0
   13.4290   -8.8805   22.2166 H   0  0  0  0  0  0  0  0  0  0  0  0
   21.2875  -11.8339   25.7620 H   0  0  0  0  0  0  0  0  0  0  0  0
   23.1979  -13.2982   25.1304 H   0  0  0  0  0  0  0  0  0  0  0  0
   10.7960  -12.0778   23.4142 H   0  0  0  0  0  0  0  0  0  0  0  0
   22.7747  -15.6281   24.3674 H   0  0  0  0  0  0  0  0  0  0  0  0
   11.7602  -13.5369   21.6556 H   0  0  0  0  0  0  0  0  0  0  0  0
   20.4418  -16.4614   24.1397 H   0  0  0  0  0  0  0  0  0  0  0  0
   13.5696  -12.6823   20.1837 H   0  0  0  0  0  0  0  0  0  0  0  0
   10.4237   -9.4972   23.9951 H   0  0  0  0  0  0  0  0  0  0  0  0
   11.6938  -10.1971   25.0550 H   0  0  0  0  0  0  0  0  0  0  0  0
   11.5946   -7.7479   25.2692 H   0  0  0  0  0  0  0  0  0  0  0  0
   13.1643   -8.2671   24.5673 H   0  0  0  0  0  0  0  0  0  0  0  0
   11.8942   -7.5671   23.5074 H   0  0  0  0  0  0  0  0  0  0  0  0
  1  2  1  0  0  0  0
  1 14  1  0  0  0  0
  1  3  1  0  0  0  0
  2  5  1  0  0  0  0
  2  7  1  0  0  0  0
  3  8  1  0  0  0  0
  3  4  2  0  0  0  0
  5  6  2  0  0  0  0
  5  9  1  0  0  0  0
  7 10  1  0  0  0  0
  8 11  1  0  0  0  0
  8 12  1  0  0  0  0
  9 13  1  0  0  0  0
 10 14  1  0  0  0  0
 12 15  1  0  0  0  0
 13 16  1  0  0  0  0
 15 17  2  0  0  0  0
 15 25  1  0  0  0  0
 16 18  2  0  0  0  0
 16 26  1  0  0  0  0
 17 19  1  0  0  0  0
 18 20  1  0  0  0  0
 19 21  2  0  0  0  0
 20 22  2  0  0  0  0
 20 27  1  0  0  0  0
 21 23  1  0  0  0  0
 22 24  1  0  0  0  0
 23 25  2  0  0  0  0
 24 26  2  0  0  0  0
 27 28  1  0  0  0  0
  2 29  1  0  0  0  0
  7 30  1  0  0  0  0
  7 31  1  0  0  0  0
  8 32  1  0  0  0  0
  9 33  1  0  0  0  0
 10 34  1  0  0  0  0
 10 35  1  0  0  0  0
 11 36  1  0  0  0  0
 11 37  1  0  0  0  0
 12 38  1  0  0  0  0
 12 39  1  0  0  0  0
 13 40  1  0  0  0  0
 13 41  1  0  0  0  0
 14 42  1  0  0  0  0
 14 43  1  0  0  0  0
 17 44  1  0  0  0  0
 18 45  1  0  0  0  0
 19 46  1  0  0  0  0
 21 47  1  0  0  0  0
 22 48  1  0  0  0  0
 23 49  1  0  0  0  0
 24 50  1  0  0  0  0
 25 51  1  0  0  0  0
 26 52  1  0  0  0  0
 27 53  1  0  0  0  0
 27 54  1  0  0  0  0
 28 55  1  0  0  0  0
 28 56  1  0  0  0  0
 28 57  1  0  0  0  0
M  END
> <r_user_dG.exp>
-7.86

$$$$
3b
  -OEChem-05162309453D
 Structure written by MMmdl.
 57 59  0     1  0  0  0  0  0999 V2000
   18.2837  -13.2167   21.6711 N   0  0  0  0  0  0  0  0  0  0  0  0
   18.1069  -11.9189   20.9899 C   0  0  2  0  0  0  0  0  0  0  0  0
   17.4006  -13.7476   22.5524 C   0  0  0  0  0  0  0  0  0  0  0  0
   16.4058  -13.1272   22.9305 O   0  0  0  0  0  0  0  0  0  0  0  0
   16.7158  -11.7247   20.3399 C   0  0  0  0  0  0  0  0  0  0  0  0
   16.2540  -12.5979   19.6030 O   0  0  0  0  0  0  0  0  0  0  0  0
   19.2212  -11.8811   19.9329 C   0  0  0  0  0  0  0  0  0  0  0  0
   17.6347  -15.1514   23.1434 C   0  0  2  0  0  0  0  0  0  0  0  0
   16.0668  -10.5871   20.6174 N   0  0  0  0  0  0  0  0  0  0  0  0
   20.3031  -12.8141   20.4369 C   0  0  0  0  0  0  0  0  0  0  0  0
   16.3852  -15.9256   23.0521 N   0  0  0  0  0  0  0  0  0  0  0  0
   18.1081  -15.0916   24.6149 C   0  0  0  0  0  0  0  0  0  0  0  0
   14.7238  -10.2228   20.1805 C   0  0  0  0  0  0  0  0  0  0  0  0
   19.5622  -13.8312   21.2959 C   0  0  0  0  0  0  0  0  0  0  0  0
   19.5374  -14.6118   24.8032 C   0  0  0  0  0  0  0  0  0  0  0  0
   13.6222  -10.7255   21.0990 C   0  0  0  0  0  0  0  0  0  0  0  0
   19.7921  -13.3153   25.2875 C   0  0  0  0  0  0  0  0  0  0  0  0
   13.0747   -9.8945   22.1043 C   0  0  0  0  0  0  0  0  0  0  0  0
   21.1061  -12.8369   25.4050 C   0  0  0  0  0  0  0  0  0  0  0  0
   12.0629  -10.3884   22.9643 C   0  0  0  0  0  0  0  0  0  0  0  0
   22.1857  -13.6674   25.0566 C   0  0  0  0  0  0  0  0  0  0  0  0
   11.5859  -11.7025   22.7805 C   0  0  0  0  0  0  0  0  0  0  0  0
   21.9450  -14.9812   24.6113 C   0  0  0  0  0  0  0  0  0  0  0  0
   12.1277  -12.5291   21.7812 C   0  0  0  0  0  0  0  0  0  0  0  0
   20.6234  -15.4537   24.4832 C   0  0  0  0  0  0  0  0  0  0  0  0
   13.1479  -12.0435   20.9456 C   0  0  0  0  0  0  0  0  0  0  0  0
   11.5078   -9.6034   24.1479 C   0  0  0  0  0  0  0  0  0  0  0  0
   12.0810   -8.1961   24.3903 C   0  0  0  0  0  0  0  0  0  0  0  0
   18.2745  -11.1024   21.7077 H   0  0  0  0  0  0  0  0  0  0  0  0
   15.3996  -12.3275   19.2877 H   0  0  0  0  0  0  0  0  0  0  0  0
   18.8390  -12.2277   18.9614 H   0  0  0  0  0  0  0  0  0  0  0  0
   19.6151  -10.8594   19.8285 H   0  0  0  0  0  0  0  0  0  0  0  0
   18.4147  -15.6511   22.5502 H   0  0  0  0  0  0  0  0  0  0  0  0
   20.8101  -13.3110   19.5966 H   0  0  0  0  0  0  0  0  0  0  0  0
   21.0423  -12.2635   21.0373 H   0  0  0  0  0  0  0  0  0  0  0  0
   16.5295  -16.8385   23.4340 H   0  0  0  0  0  0  0  0  0  0  0  0
   15.6658  -15.4590   23.5666 H   0  0  0  0  0  0  0  0  0  0  0  0
   17.4423  -14.4075   25.1615 H   0  0  0  0  0  0  0  0  0  0  0  0
   18.0267  -16.1019   25.0423 H   0  0  0  0  0  0  0  0  0  0  0  0
   14.6607   -9.1257   20.1315 H   0  0  0  0  0  0  0  0  0  0  0  0
   14.5589  -10.6446   19.1781 H   0  0  0  0  0  0  0  0  0  0  0  0
   20.1488  -14.0653   22.1965 H   0  0  0  0  0  0  0  0  0  0  0  0
   19.3856  -14.7536   20.7233 H   0  0  0  0  0  0  0  0  0  0  0  0
   18.9660  -12.6806   25.5723 H   0  0  0  0  0  0  0  0  0  0  0  0
   13.4290   -8.8805   22.2166 H   0  0  0  0  0  0  0  0  0  0  0  0
   21.2875  -11.8339   25.7620 H   0  0  0  0  0  0  0  0  0  0  0  0
   23.1979  -13.2982   25.1304 H   0  0  0  0  0  0  0  0  0  0  0  0
   10.7960  -12.0778   23.4142 H   0  0  0  0  0  0  0  0  0  0  0  0
   22.7747  -15.6281   24.3674 H   0  0  0  0  0  0  0  0  0  0  0  0
   11.7602  -13.5369   21.6556 H   0  0  0  0  0  0  0  0  0  0  0  0
   20.4418  -16.4614   24.1397 H   0  0  0  0  0  0  0  0  0  0  0  0
   13.5696  -12.6823   20.1837 H   0  0  0  0  0  0  0  0  0  0  0  0
   10.4237   -9.4972   23.9951 H   0  0  0  0  0  0  0  0  0  0  0  0
   11.6938  -10.1971   25.0550 H   0  0  0  0  0  0  0  0  0  0  0  0
   11.5946   -7.7479   25.2692 H   0  0  0  0  0  0  0  0  0  0  0  0
   13.1643   -8.2671   24.5673 H   0  0  0  0  0  0  0  0  0  0  0  0
   11.8942   -7.5671   23.5074 H   0  0  0  0  0  0  0  0  0  0  0  0
  1  2  1  0  0  0  0
  1 14  1  0  0  0  0
  1  3  1  0  0  0  0
  2  5  1  0  0  0  0
  2  7  1  0  0  0  0
  3  8  1  0  0  0  0
  3  4  2  0  0  0  0
  5  6  1  0  0  0  0
  5  9  2  0  0  0  0
  7 10  1  0  0  0  0
  8 11  1  0  0  0  0
  8 12  1  0  0  0  0
  9 13  1  0  0  0  0
 10 14  1  0  0  0  0
 12 15  1  0  0  0  0
 13 16  1  0  0  0  0
 15 17  2  0  0  0  0
 15 25  1  0  0  0  0
 16 18  2  0  0  0  0
 16 26  1  0  0  0  0
 17 19  1  0  0  0  0
 18 20  1  0  0  0  0
 19 21  2  0  0  0  0
 20 22  2  0  0  0  0
 20 27  1  0  0  0  0
 21 23  1  0  0  0  0
 22 24  1  0  0  0  0
 23 25  2  0  0  0  0
 24 26  2  0  0  0  0
 27 28  1  0  0  0  0
  2 29  1  0  0  0  0
  6 30  1  0  0  0  0
  7 31  1  0  0  0  0
  7 32  1  0  0  0  0
  8 33  1  0  0  0  0
 10 34  1  0  0  0  0
 10 35  1  0  0  0  0
 11 36  1  0  0  0  0
 11 37  1  0  0  0  0
 12 38  1  0  0  0  0
 12 39  1  0  0  0  0
 13 40  1  0  0  0  0
 13 41  1  0  0  0  0
 14 42  1  0  0  0  0
 14 43  1  0  0  0  0
 17 44  1  0  0  0  0
 18 45  1  0  0  0  0
 19 46  1  0  0  0  0
 21 47  1  0  0  0  0
 22 48  1  0  0  0  0
 23 49  1  0  0  0  0
 24 50  1  0  0  0  0
 25 51  1  0  0  0  0
 26 52  1  0  0  0  0
 27 53  1  0  0  0  0
 27 54  1  0  0  0  0
 28 55  1  0  0  0  0
 28 56  1  0  0  0  0
 28 57  1  0  0  0  0
M  END
> <r_user_dG.exp>
-7.86

$$$$
3b
  -OEChem-05162309453D
 Structure written by MMmdl.
 57 59  0     1  0  0  0  0  0999 V2000
   18.2837  -13.2167   21.6711 N   0  0  0  0  0  0  0  0  0  0  0  0
   18.1069  -11.9189   20.9899 C   0  0  2  0  0  0  0  0  0  0  0  0
   17.4006  -13.7476   22.5524 C   0  0  0  0  0  0  0  0  0  0  0  0
   16.4058  -13.1272   22.9305 O   0  0  0  0  0  0  0  0  0  0  0  0
   16.7158  -11.7247   20.3399 C   0  0  0  0  0  0  0  0  0  0  0  0
   16.2540  -12.5979   19.6030 O   0  0  0  0  0  0  0  0  0  0  0  0
   19.2212  -11.8811   19.9329 C   0  0  0  0  0  0  0  0  0  0  0  0
   17.6347  -15.1514   23.1434 C   0  0  2  0  0  0  0  0  0  0  0  0
   16.0668  -10.5871   20.6174 N   0  0  0  0  0  0  0  0  0  0  0  0
   20.3031  -12.8141   20.4369 C   0  0  0  0  0  0  0  0  0  0  0  0
   16.3852  -15.9256   23.0521 N   0  0  0  0  0  0  0  0  0  0  0  0
   18.1081  -15.0916   24.6149 C   0  0  0  0  0  0  0  0  0  0  0  0
   14.7238  -10.2228   20.1805 C   0  0  0  0  0  0  0  0  0  0  0  0
   19.5622  -13.8312   21.2959 C   0  0  0  0  0  0  0  0  0  0  0  0
   19.5374  -14.6118   24.8032 C   0  0  0  0  0  0  0  0  0  0  0  0
   13.6222  -10.7255   21.0990 C   0  0  0  0  0  0  0  0  0  0  0  0
   19.7921  -13.3153   25.2875 C   0  0  0  0  0  0  0  0  0  0  0  0
   13.0747   -9.8945   22.1043 C   0  0  0  0  0  0  0  0  0  0  0  0
   21.1061  -12.8369   25.4050 C   0  0  0  0  0  0  0  0  0  0  0  0
   12.0629  -10.3884   22.9643 C   0  0  0  0  0  0  0  0  0  0  0  0
   22.1857  -13.6674   25.0566 C   0  0  0  0  0  0  0  0  0  0  0  0
   11.5859  -11.7025   22.7805 C   0  0  0  0  0  0  0  0  0  0  0  0
   21.9450  -14.9812   24.6113 C   0  0  0  0  0  0  0  0  0  0  0  0
   12.1277  -12.5291   21.7812 C   0  0  0  0  0  0  0  0  0  0  0  0
   20.6234  -15.4537   24.4832 C   0  0  0  0  0  0  0  0  0  0  0  0
   13.1479  -12.0435   20.9456 C   0  0  0  0  0  0  0  0  0  0  0  0
   11.5078   -9.6034   24.1479 C   0  0  0  0  0  0  0  0  0  0  0  0
   12.0810   -8.1961   24.3903 C   0  0  0  0  0  0  0  0  0  0  0  0
   18.2745  -11.1024   21.7077 H   0  0  0  0  0  0  0  0  0  0  0  0
   16.8241  -14.1847   21.7238 H   0  0  0  0  0  0  0  0  0  0  0  0
   15.9127  -13.6611   23.5424 H   0  0  0  0  0  0  0  0  0  0  0  0
   18.8390  -12.2277   18.9614 H   0  0  0  0  0  0  0  0  0  0  0  0
   19.6151  -10.8594   19.8285 H   0  0  0  0  0  0  0  0  0  0  0  0
   16.5522   -9.9192   21.1816 H   0  0  0  0  0  0  0  0  0  0  0  0
   20.8101  -13.3110   19.5966 H   0  0  0  0  0  0  0  0  0  0  0  0
   21.0423  -12.2635   21.0373 H   0  0  0  0  0  0  0  0  0  0  0  0
   16.0856  -16.2600   23.9456 H   0  0  0  0  0  0  0  0  0  0  0  0
   17.4423  -14.4075   25.1615 H   0  0  0  0  0  0  0  0  0  0  0  0
   18.0267  -16.1019   25.0423 H   0  0  0  0  0  0  0  0  0  0  0  0
   14.6607   -9.1257   20.1315 H   0  0  0  0  0  0  0  0  0  0  0  0
   14.5589  -10.6446   19.1781 H   0  0  0  0  0  0  0  0  0  0  0  0
   20.1488  -14.0653   22.1965 H   0  0  0  0  0  0  0  0  0  0  0  0
   19.3856  -14.7536   20.7233 H   0  0  0  0  0  0  0  0  0  0  0  0
   18.9660  -12.6806   25.5723 H   0  0  0  0  0  0  0  0  0  0  0  0
   13.4290   -8.8805   22.2166 H   0  0  0  0  0  0  0  0  0  0  0  0
   21.2875  -11.8339   25.7620 H   0  0  0  0  0  0  0  0  0  0  0  0
   23.1979  -13.2982   25.1304 H   0  0  0  0  0  0  0  0  0  0  0  0
   10.7960  -12.0778   23.4142 H   0  0  0  0  0  0  0  0  0  0  0  0
   22.7747  -15.6281   24.3674 H   0  0  0  0  0  0  0  0  0  0  0  0
   11.7602  -13.5369   21.6556 H   0  0  0  0  0  0  0  0  0  0  0  0
   20.4418  -16.4614   24.1397 H   0  0  0  0  0  0  0  0  0  0  0  0
   13.5696  -12.6823   20.1837 H   0  0  0  0  0  0  0  0  0  0  0  0
   10.4237   -9.4972   23.9951 H   0  0  0  0  0  0  0  0  0  0  0  0
   11.6938  -10.1971   25.0550 H   0  0  0  0  0  0  0  0  0  0  0  0
   11.5946   -7.7479   25.2692 H   0  0  0  0  0  0  0  0  0  0  0  0
   13.1643   -8.2671   24.5673 H   0  0  0  0  0  0  0  0  0  0  0  0
   11.8942   -7.5671   23.5074 H   0  0  0  0  0  0  0  0  0  0  0  0
  1  2  1  0  0  0  0
  1 14  1  0  0  0  0
  1  3  1  0  0  0  0
  2  5  1  0  0  0  0
  2  7  1  0  0  0  0
  3  8  1  0  0  0  0
  3  4  1  0  0  0  0
  5  6  2  0  0  0  0
  5  9  1  0  0  0  0
  7 10  1  0  0  0  0
  8 11  2  0  0  0  0
  8 12  1  0  0  0  0
  9 13  1  0  0  0  0
 10 14  1  0  0  0  0
 12 15  1  0  0  0  0
 13 16  1  0  0  0  0
 15 17  2  0  0  0  0
 15 25  1  0  0  0  0
 16 18  2  0  0  0  0
 16 26  1  0  0  0  0
 17 19  1  0  0  0  0
 18 20  1  0  0  0  0
 19 21  2  0  0  0  0
 20 22  2  0  0  0  0
 20 27  1  0  0  0  0
 21 23  1  0  0  0  0
 22 24  1  0  0  0  0
 23 25  2  0  0  0  0
 24 26  2  0  0  0  0
 27 28  1  0  0  0  0
  2 29  1  0  0  0  0
  3 30  1  0  0  0  0
  4 31  1  0  0  0  0
  7 32  1  0  0  0  0
  7 33  1  0  0  0  0
  9 34  1  0  0  0  0
 10 35  1  0  0  0  0
 10 36  1  0  0  0  0
 11 37  1  0  0  0  0
 12 38  1  0  0  0  0
 12 39  1  0  0  0  0
 13 40  1  0  0  0  0
 13 41  1  0  0  0  0
 14 42  1  0  0  0  0
 14 43  1  0  0  0  0
 17 44  1  0  0  0  0
 18 45  1  0  0  0  0
 19 46  1  0  0  0  0
 21 47  1  0  0  0  0
 22 48  1  0  0  0  0
 23 49  1  0  0  0  0
 24 50  1  0  0  0  0
 25 51  1  0  0  0  0
 26 52  1  0  0  0  0
 27 53  1  0  0  0  0
 27 54  1  0  0  0  0
 28 55  1  0  0  0  0
 28 56  1  0  0  0  0
 28 57  1  0  0  0  0
M  END
> <r_user_dG.exp>
-7.86

$$$$
3b
  -OEChem-05162309453D
 Structure written by MMmdl.
 57 59  0     1  0  0  0  0  0999 V2000
   18.2837  -13.2167   21.6711 N   0  0  0  0  0  0  0  0  0  0  0  0
   18.1069  -11.9189   20.9899 C   0  0  2  0  0  0  0  0  0  0  0  0
   17.4006  -13.7476   22.5524 C   0  0  0  0  0  0  0  0  0  0  0  0
   16.4058  -13.1272   22.9305 O   0  0  0  0  0  0  0  0  0  0  0  0
   16.7158  -11.7247   20.3399 C   0  0  0  0  0  0  0  0  0  0  0  0
   16.2540  -12.5979   19.6030 O   0  0  0  0  0  0  0  0  0  0  0  0
   19.2212  -11.8811   19.9329 C   0  0  0  0  0  0  0  0  0  0  0  0
   17.6347  -15.1514   23.1434 C   0  0  2  0  0  0  0  0  0  0  0  0
   16.0668  -10.5871   20.6174 N   0  0  0  0  0  0  0  0  0  0  0  0
   20.3031  -12.8141   20.4369 C   0  0  0  0  0  0  0  0  0  0  0  0
   16.3852  -15.9256   23.0521 N   0  0  0  0  0  0  0  0  0  0  0  0
   18.1081  -15.0916   24.6149 C   0  0  0  0  0  0  0  0  0  0  0  0
   14.7238  -10.2228   20.1805 C   0  0  0  0  0  0  0  0  0  0  0  0
   19.5622  -13.8312   21.2959 C   0  0  0  0  0  0  0  0  0  0  0  0
   19.5374  -14.6118   24.8032 C   0  0  0  0  0  0  0  0  0  0  0  0
   13.6222  -10.7255   21.0990 C   0  0  0  0  0  0  0  0  0  0  0  0
   19.7921  -13.3153   25.2875 C   0  0  0  0  0  0  0  0  0  0  0  0
   13.0747   -9.8945   22.1043 C   0  0  0  0  0  0  0  0  0  0  0  0
   21.1061  -12.8369   25.4050 C   0  0  0  0  0  0  0  0  0  0  0  0
   12.0629  -10.3884   22.9643 C   0  0  0  0  0  0  0  0  0  0  0  0
   22.1857  -13.6674   25.0566 C   0  0  0  0  0  0  0  0  0  0  0  0
   11.5859  -11.7025   22.7805 C   0  0  0  0  0  0  0  0  0  0  0  0
   21.9450  -14.9812   24.6113 C   0  0  0  0  0  0  0  0  0  0  0  0
   12.1277  -12.5291   21.7812 C   0  0  0  0  0  0  0  0  0  0  0  0
   20.6234  -15.4537   24.4832 C   0  0  0  0  0  0  0  0  0  0  0  0
   13.1479  -12.0435   20.9456 C   0  0  0  0  0  0  0  0  0  0  0  0
   11.5078   -9.6034   24.1479 C   0  0  0  0  0  0  0  0  0  0  0  0
   12.0810   -8.1961   24.3903 C   0  0  0  0  0  0  0  0  0  0  0  0
   18.2745  -11.1024   21.7077 H   0  0  0  0  0  0  0  0  0  0  0  0
   16.8241  -14.1847   21.7238 H   0  0  0  0  0  0  0  0  0  0  0  0
   15.9127  -13.6611   23.5424 H   0  0  0  0  0  0  0  0  0  0  0  0
   15.3996  -12.3275   19.2877 H   0  0  0  0  0  0  0  0  0  0  0  0
   18.8390  -12.2277   18.9614 H   0  0  0  0  0  0  0  0  0  0  0  0
   19.6151  -10.8594   19.8285 H   0  0  0  0  0  0  0  0  0  0  0  0
   20.8101  -13.3110   19.5966 H   0  0  0  0  0  0  0  0  0  0  0  0
   21.0423  -12.2635   21.0373 H   0  0  0  0  0  0  0  0  0  0  0  0
   16.0856  -16.2600   23.9456 H   0  0  0  0  0  0  0  0  0  0  0  0
   17.4423  -14.4075   25.1615 H   0  0  0  0  0  0  0  0  0  0  0  0
   18.0267  -16.1019   25.0423 H   0  0  0  0  0  0  0  0  0  0  0  0
   14.6607   -9.1257   20.1315 H   0  0  0  0  0  0  0  0  0  0  0  0
   14.5589  -10.6446   19.1781 H   0  0  0  0  0  0  0  0  0  0  0  0
   20.1488  -14.0653   22.1965 H   0  0  0  0  0  0  0  0  0  0  0  0
   19.3856  -14.7536   20.7233 H   0  0  0  0  0  0  0  0  0  0  0  0
   18.9660  -12.6806   25.5723 H   0  0  0  0  0  0  0  0  0  0  0  0
   13.4290   -8.8805   22.2166 H   0  0  0  0  0  0  0  0  0  0  0  0
   21.2875  -11.8339   25.7620 H   0  0  0  0  0  0  0  0  0  0  0  0
   23.1979  -13.2982   25.1304 H   0  0  0  0  0  0  0  0  0  0  0  0
   10.7960  -12.0778   23.4142 H   0  0  0  0  0  0  0  0  0  0  0  0
   22.7747  -15.6281   24.3674 H   0  0  0  0  0  0  0  0  0  0  0  0
   11.7602  -13.5369   21.6556 H   0  0  0  0  0  0  0  0  0  0  0  0
   20.4418  -16.4614   24.1397 H   0  0  0  0  0  0  0  0  0  0  0  0
   13.5696  -12.6823   20.1837 H   0  0  0  0  0  0  0  0  0  0  0  0
   10.4237   -9.4972   23.9951 H   0  0  0  0  0  0  0  0  0  0  0  0
   11.6938  -10.1971   25.0550 H   0  0  0  0  0  0  0  0  0  0  0  0
   11.5946   -7.7479   25.2692 H   0  0  0  0  0  0  0  0  0  0  0  0
   13.1643   -8.2671   24.5673 H   0  0  0  0  0  0  0  0  0  0  0  0
   11.8942   -7.5671   23.5074 H   0  0  0  0  0  0  0  0  0  0  0  0
  1  2  1  0  0  0  0
  1 14  1  0  0  0  0
  1  3  1  0  0  0  0
  2  5  1  0  0  0  0
  2  7  1  0  0  0  0
  3  8  1  0  0  0  0
  3  4  1  0  0  0  0
  5  6  1  0  0  0  0
  5  9  2  0  0  0  0
  7 10  1  0  0  0  0
  8 11  2  0  0  0  0
  8 12  1  0  0  0  0
  9 13  1  0  0  0  0
 10 14  1  0  0  0  0
 12 15  1  0  0  0  0
 13 16  1  0  0  0  0
 15 17  2  0  0  0  0
 15 25  1  0  0  0  0
 16 18  2  0  0  0  0
 16 26  1  0  0  0  0
 17 19  1  0  0  0  0
 18 20  1  0  0  0  0
 19 21  2  0  0  0  0
 20 22  2  0  0  0  0
 20 27  1  0  0  0  0
 21 23  1  0  0  0  0
 22 24  1  0  0  0  0
 23 25  2  0  0  0  0
 24 26  2  0  0  0  0
 27 28  1  0  0  0  0
  2 29  1  0  0  0  0
  3 30  1  0  0  0  0
  4 31  1  0  0  0  0
  6 32  1  0  0  0  0
  7 33  1  0  0  0  0
  7 34  1  0  0  0  0
 10 35  1  0  0  0  0
 10 36  1  0  0  0  0
 11 37  1  0  0  0  0
 12 38  1  0  0  0  0
 12 39  1  0  0  0  0
 13 40  1  0  0  0  0
 13 41  1  0  0  0  0
 14 42  1  0  0  0  0
 14 43  1  0  0  0  0
 17 44  1  0  0  0  0
 18 45  1  0  0  0  0
 19 46  1  0  0  0  0
 21 47  1  0  0  0  0
 22 48  1  0  0  0  0
 23 49  1  0  0  0  0
 24 50  1  0  0  0  0
 25 51  1  0  0  0  0
 26 52  1  0  0  0  0
 27 53  1  0  0  0  0
 27 54  1  0  0  0  0
 28 55  1  0  0  0  0
 28 56  1  0  0  0  0
 28 57  1  0  0  0  0
M  END
> <r_user_dG.exp>
-7.86

$$$$
3b
  -OEChem-05162309453D
 Structure written by MMmdl.
 57 59  0     1  0  0  0  0  0999 V2000
   18.2837  -13.2167   21.6711 N   0  0  0  0  0  0  0  0  0  0  0  0
   18.1069  -11.9189   20.9899 C   0  0  2  0  0  0  0  0  0  0  0  0
   17.4006  -13.7476   22.5524 C   0  0  0  0  0  0  0  0  0  0  0  0
   16.4058  -13.1272   22.9305 O   0  0  0  0  0  0  0  0  0  0  0  0
   16.7158  -11.7247   20.3399 C   0  0  0  0  0  0  0  0  0  0  0  0
   16.2540  -12.5979   19.6030 O   0  0  0  0  0  0  0  0  0  0  0  0
   19.2212  -11.8811   19.9329 C   0  0  0  0  0  0  0  0  0  0  0  0
   17.6347  -15.1514   23.1434 C   0  0  2  0  0  0  0  0  0  0  0  0
   16.0668  -10.5871   20.6174 N   0  0  0  0  0  0  0  0  0  0  0  0
   20.3031  -12.8141   20.4369 C   0  0  0  0  0  0  0  0  0  0  0  0
   16.3852  -15.9256   23.0521 N   0  0  0  0  0  0  0  0  0  0  0  0
   18.1081  -15.0916   24.6149 C   0  0  0  0  0  0  0  0  0  0  0  0
   14.7238  -10.2228   20.1805 C   0  0  0  0  0  0  0  0  0  0  0  0
   19.5622  -13.8312   21.2959 C   0  0  0  0  0  0  0  0  0  0  0  0
   19.5374  -14.6118   24.8032 C   0  0  0  0  0  0  0  0  0  0  0  0
   13.6222  -10.7255   21.0990 C   0  0  0  0  0  0  0  0  0  0  0  0
   19.7921  -13.3153   25.2875 C   0  0  0  0  0  0  0  0  0  0  0  0
   13.0747   -9.8945   22.1043 C   0  0  0  0  0  0  0  0  0  0  0  0
   21.1061  -12.8369   25.4050 C   0  0  0  0  0  0  0  0  0  0  0  0
   12.0629  -10.3884   22.9643 C   0  0  0  0  0  0  0  0  0  0  0  0
   22.1857  -13.6674   25.0566 C   0  0  0  0  0  0  0  0  0  0  0  0
   11.5859  -11.7025   22.7805 C   0  0  0  0  0  0  0  0  0  0  0  0
   21.9450  -14.9812   24.6113 C   0  0  0  0  0  0  0  0  0  0  0  0
   12.1277  -12.5291   21.7812 C   0  0  0  0  0  0  0  0  0  0  0  0
   20.6234  -15.4537   24.4832 C   0  0  0  0  0  0  0  0  0  0  0  0
   13.1479  -12.0435   20.9456 C   0  0  0  0  0  0  0  0  0  0  0  0
   11.5078   -9.6034   24.1479 C   0  0  0  0  0  0  0  0  0  0  0  0
   12.0810   -8.1961   24.3903 C   0  0  0  0  0  0  0  0  0  0  0  0
   18.2745  -11.1024   21.7077 H   0  0  0  0  0  0  0  0  0  0  0  0
   15.9127  -13.6611   23.5424 H   0  0  0  0  0  0  0  0  0  0  0  0
   18.8390  -12.2277   18.9614 H   0  0  0  0  0  0  0  0  0  0  0  0
   19.6151  -10.8594   19.8285 H   0  0  0  0  0  0  0  0  0  0  0  0
   16.5522   -9.9192   21.1816 H   0  0  0  0  0  0  0  0  0  0  0  0
   20.8101  -13.3110   19.5966 H   0  0  0  0  0  0  0  0  0  0  0  0
   21.0423  -12.2635   21.0373 H   0  0  0  0  0  0  0  0  0  0  0  0
   16.5295  -16.8385   23.4340 H   0  0  0  0  0  0  0  0  0  0  0  0
   15.6658  -15.4590   23.5666 H   0  0  0  0  0  0  0  0  0  0  0  0
   17.4423  -14.4075   25.1615 H   0  0  0  0  0  0  0  0  0  0  0  0
   18.0267  -16.1019   25.0423 H   0  0  0  0  0  0  0  0  0  0  0  0
   14.6607   -9.1257   20.1315 H   0  0  0  0  0  0  0  0  0  0  0  0
   14.5589  -10.6446   19.1781 H   0  0  0  0  0  0  0  0  0  0  0  0
   20.1488  -14.0653   22.1965 H   0  0  0  0  0  0  0  0  0  0  0  0
   19.3856  -14.7536   20.7233 H   0  0  0  0  0  0  0  0  0  0  0  0
   18.9660  -12.6806   25.5723 H   0  0  0  0  0  0  0  0  0  0  0  0
   13.4290   -8.8805   22.2166 H   0  0  0  0  0  0  0  0  0  0  0  0
   21.2875  -11.8339   25.7620 H   0  0  0  0  0  0  0  0  0  0  0  0
   23.1979  -13.2982   25.1304 H   0  0  0  0  0  0  0  0  0  0  0  0
   10.7960  -12.0778   23.4142 H   0  0  0  0  0  0  0  0  0  0  0  0
   22.7747  -15.6281   24.3674 H   0  0  0  0  0  0  0  0  0  0  0  0
   11.7602  -13.5369   21.6556 H   0  0  0  0  0  0  0  0  0  0  0  0
   20.4418  -16.4614   24.1397 H   0  0  0  0  0  0  0  0  0  0  0  0
   13.5696  -12.6823   20.1837 H   0  0  0  0  0  0  0  0  0  0  0  0
   10.4237   -9.4972   23.9951 H   0  0  0  0  0  0  0  0  0  0  0  0
   11.6938  -10.1971   25.0550 H   0  0  0  0  0  0  0  0  0  0  0  0
   11.5946   -7.7479   25.2692 H   0  0  0  0  0  0  0  0  0  0  0  0
   13.1643   -8.2671   24.5673 H   0  0  0  0  0  0  0  0  0  0  0  0
   11.8942   -7.5671   23.5074 H   0  0  0  0  0  0  0  0  0  0  0  0
  1  2  1  0  0  0  0
  1 14  1  0  0  0  0
  1  3  1  0  0  0  0
  2  5  1  0  0  0  0
  2  7  1  0  0  0  0
  3  8  2  0  0  0  0
  3  4  1  0  0  0  0
  5  6  2  0  0  0  0
  5  9  1  0  0  0  0
  7 10  1  0  0  0  0
  8 11  1  0  0  0  0
  8 12  1  0  0  0  0
  9 13  1  0  0  0  0
 10 14  1  0  0  0  0
 12 15  1  0  0  0  0
 13 16  1  0  0  0  0
 15 17  2  0  0  0  0
 15 25  1  0  0  0  0
 16 18  2  0  0  0  0
 16 26  1  0  0  0  0
 17 19  1  0  0  0  0
 18 20  1  0  0  0  0
 19 21  2  0  0  0  0
 20 22  2  0  0  0  0
 20 27  1  0  0  0  0
 21 23  1  0  0  0  0
 22 24  1  0  0  0  0
 23 25  2  0  0  0  0
 24 26  2  0  0  0  0
 27 28  1  0  0  0  0
  2 29  1  0  0  0  0
  4 30  1  0  0  0  0
  7 31  1  0  0  0  0
  7 32  1  0  0  0  0
  9 33  1  0  0  0  0
 10 34  1  0  0  0  0
 10 35  1  0  0  0  0
 11 36  1  0  0  0  0
 11 37  1  0  0  0  0
 12 38  1  0  0  0  0
 12 39  1  0  0  0  0
 13 40  1  0  0  0  0
 13 41  1  0  0  0  0
 14 42  1  0  0  0  0
 14 43  1  0  0  0  0
 17 44  1  0  0  0  0
 18 45  1  0  0  0  0
 19 46  1  0  0  0  0
 21 47  1  0  0  0  0
 22 48  1  0  0  0  0
 23 49  1  0  0  0  0
 24 50  1  0  0  0  0
 25 51  1  0  0  0  0
 26 52  1  0  0  0  0
 27 53  1  0  0  0  0
 27 54  1  0  0  0  0
 28 55  1  0  0  0  0
 28 56  1  0  0  0  0
 28 57  1  0  0  0  0
M  END
> <r_user_dG.exp>
-7.86

$$$$
3b
  -OEChem-05162309453D
 Structure written by MMmdl.
 57 59  0     1  0  0  0  0  0999 V2000
   18.2837  -13.2167   21.6711 N   0  0  0  0  0  0  0  0  0  0  0  0
   18.1069  -11.9189   20.9899 C   0  0  2  0  0  0  0  0  0  0  0  0
   17.4006  -13.7476   22.5524 C   0  0  0  0  0  0  0  0  0  0  0  0
   16.4058  -13.1272   22.9305 O   0  0  0  0  0  0  0  0  0  0  0  0
   16.7158  -11.7247   20.3399 C   0  0  0  0  0  0  0  0  0  0  0  0
   16.2540  -12.5979   19.6030 O   0  0  0  0  0  0  0  0  0  0  0  0
   19.2212  -11.8811   19.9329 C   0  0  0  0  0  0  0  0  0  0  0  0
   17.6347  -15.1514   23.1434 C   0  0  2  0  0  0  0  0  0  0  0  0
   16.0668  -10.5871   20.6174 N   0  0  0  0  0  0  0  0  0  0  0  0
   20.3031  -12.8141   20.4369 C   0  0  0  0  0  0  0  0  0  0  0  0
   16.3852  -15.9256   23.0521 N   0  0  0  0  0  0  0  0  0  0  0  0
   18.1081  -15.0916   24.6149 C   0  0  0  0  0  0  0  0  0  0  0  0
   14.7238  -10.2228   20.1805 C   0  0  0  0  0  0  0  0  0  0  0  0
   19.5622  -13.8312   21.2959 C   0  0  0  0  0  0  0  0  0  0  0  0
   19.5374  -14.6118   24.8032 C   0  0  0  0  0  0  0  0  0  0  0  0
   13.6222  -10.7255   21.0990 C   0  0  0  0  0  0  0  0  0  0  0  0
   19.7921  -13.3153   25.2875 C   0  0  0  0  0  0  0  0  0  0  0  0
   13.0747   -9.8945   22.1043 C   0  0  0  0  0  0  0  0  0  0  0  0
   21.1061  -12.8369   25.4050 C   0  0  0  0  0  0  0  0  0  0  0  0
   12.0629  -10.3884   22.9643 C   0  0  0  0  0  0  0  0  0  0  0  0
   22.1857  -13.6674   25.0566 C   0  0  0  0  0  0  0  0  0  0  0  0
   11.5859  -11.7025   22.7805 C   0  0  0  0  0  0  0  0  0  0  0  0
   21.9450  -14.9812   24.6113 C   0  0  0  0  0  0  0  0  0  0  0  0
   12.1277  -12.5291   21.7812 C   0  0  0  0  0  0  0  0  0  0  0  0
   20.6234  -15.4537   24.4832 C   0  0  0  0  0  0  0  0  0  0  0  0
   13.1479  -12.0435   20.9456 C   0  0  0  0  0  0  0  0  0  0  0  0
   11.5078   -9.6034   24.1479 C   0  0  0  0  0  0  0  0  0  0  0  0
   12.0810   -8.1961   24.3903 C   0  0  0  0  0  0  0  0  0  0  0  0
   18.2745  -11.1024   21.7077 H   0  0  0  0  0  0  0  0  0  0  0  0
   15.9127  -13.6611   23.5424 H   0  0  0  0  0  0  0  0  0  0  0  0
   15.3996  -12.3275   19.2877 H   0  0  0  0  0  0  0  0  0  0  0  0
   18.8390  -12.2277   18.9614 H   0  0  0  0  0  0  0  0  0  0  0  0
   19.6151  -10.8594   19.8285 H   0  0  0  0  0  0  0  0  0  0  0  0
   20.8101  -13.3110   19.5966 H   0  0  0  0  0  0  0  0  0  0  0  0
   21.0423  -12.2635   21.0373 H   0  0  0  0  0  0  0  0  0  0  0  0
   16.5295  -16.8385   23.4340 H   0  0  0  0  0  0  0  0  0  0  0  0
   15.6658  -15.4590   23.5666 H   0  0  0  0  0  0  0  0  0  0  0  0
   17.4423  -14.4075   25.1615 H   0  0  0  0  0  0  0  0  0  0  0  0
   18.0267  -16.1019   25.0423 H   0  0  0  0  0  0  0  0  0  0  0  0
   14.6607   -9.1257   20.1315 H   0  0  0  0  0  0  0  0  0  0  0  0
   14.5589  -10.6446   19.1781 H   0  0  0  0  0  0  0  0  0  0  0  0
   20.1488  -14.0653   22.1965 H   0  0  0  0  0  0  0  0  0  0  0  0
   19.3856  -14.7536   20.7233 H   0  0  0  0  0  0  0  0  0  0  0  0
   18.9660  -12.6806   25.5723 H   0  0  0  0  0  0  0  0  0  0  0  0
   13.4290   -8.8805   22.2166 H   0  0  0  0  0  0  0  0  0  0  0  0
   21.2875  -11.8339   25.7620 H   0  0  0  0  0  0  0  0  0  0  0  0
   23.1979  -13.2982   25.1304 H   0  0  0  0  0  0  0  0  0  0  0  0
   10.7960  -12.0778   23.4142 H   0  0  0  0  0  0  0  0  0  0  0  0
   22.7747  -15.6281   24.3674 H   0  0  0  0  0  0  0  0  0  0  0  0
   11.7602  -13.5369   21.6556 H   0  0  0  0  0  0  0  0  0  0  0  0
   20.4418  -16.4614   24.1397 H   0  0  0  0  0  0  0  0  0  0  0  0
   13.5696  -12.6823   20.1837 H   0  0  0  0  0  0  0  0  0  0  0  0
   10.4237   -9.4972   23.9951 H   0  0  0  0  0  0  0  0  0  0  0  0
   11.6938  -10.1971   25.0550 H   0  0  0  0  0  0  0  0  0  0  0  0
   11.5946   -7.7479   25.2692 H   0  0  0  0  0  0  0  0  0  0  0  0
   13.1643   -8.2671   24.5673 H   0  0  0  0  0  0  0  0  0  0  0  0
   11.8942   -7.5671   23.5074 H   0  0  0  0  0  0  0  0  0  0  0  0
  1  2  1  0  0  0  0
  1 14  1  0  0  0  0
  1  3  1  0  0  0  0
  2  5  1  0  0  0  0
  2  7  1  0  0  0  0
  3  8  2  0  0  0  0
  3  4  1  0  0  0  0
  5  6  1  0  0  0  0
  5  9  2  0  0  0  0
  7 10  1  0  0  0  0
  8 11  1  0  0  0  0
  8 12  1  0  0  0  0
  9 13  1  0  0  0  0
 10 14  1  0  0  0  0
 12 15  1  0  0  0  0
 13 16  1  0  0  0  0
 15 17  2  0  0  0  0
 15 25  1  0  0  0  0
 16 18  2  0  0  0  0
 16 26  1  0  0  0  0
 17 19  1  0  0  0  0
 18 20  1  0  0  0  0
 19 21  2  0  0  0  0
 20 22  2  0  0  0  0
 20 27  1  0  0  0  0
 21 23  1  0  0  0  0
 22 24  1  0  0  0  0
 23 25  2  0  0  0  0
 24 26  2  0  0  0  0
 27 28  1  0  0  0  0
  2 29  1  0  0  0  0
  4 30  1  0  0  0  0
  6 31  1  0  0  0  0
  7 32  1  0  0  0  0
  7 33  1  0  0  0  0
 10 34  1  0  0  0  0
 10 35  1  0  0  0  0
 11 36  1  0  0  0  0
 11 37  1  0  0  0  0
 12 38  1  0  0  0  0
 12 39  1  0  0  0  0
 13 40  1  0  0  0  0
 13 41  1  0  0  0  0
 14 42  1  0  0  0  0
 14 43  1  0  0  0  0
 17 44  1  0  0  0  0
 18 45  1  0  0  0  0
 19 46  1  0  0  0  0
 21 47  1  0  0  0  0
 22 48  1  0  0  0  0
 23 49  1  0  0  0  0
 24 50  1  0  0  0  0
 25 51  1  0  0  0  0
 26 52  1  0  0  0  0
 27 53  1  0  0  0  0
 27 54  1  0  0  0  0
 28 55  1  0  0  0  0
 28 56  1  0  0  0  0
 28 57  1  0  0  0  0
M  END
> <r_user_dG.exp>
-7.86

$$$$
