5
  -OEChem-05162309453D
 Structure written by MMmdl.
 51 53  0     1  0  0  0  0  0999 V2000
   18.3833  -13.2487   21.6777 N   0  0  0  0  0  0  0  0  0  0  0  0
   18.2278  -11.9595   20.9752 C   0  0  2  0  0  0  0  0  0  0  0  0
   17.4784  -13.7664   22.5477 C   0  0  0  0  0  0  0  0  0  0  0  0
   16.4768  -13.1400   22.8994 O   0  0  0  0  0  0  0  0  0  0  0  0
   16.8531  -11.7833   20.2962 C   0  0  0  0  0  0  0  0  0  0  0  0
   16.4281  -12.6525   19.5327 O   0  0  0  0  0  0  0  0  0  0  0  0
   19.3563  -11.9389   19.9323 C   0  0  0  0  0  0  0  0  0  0  0  0
   17.6879  -15.1677   23.1537 C   0  0  2  0  0  0  0  0  0  0  0  0
   16.1691  -10.6729   20.5899 N   0  0  0  0  0  0  0  0  0  0  0  0
   20.4245  -12.8650   20.4723 C   0  0  0  0  0  0  0  0  0  0  0  0
   16.4280  -15.9253   23.0586 N   0  0  0  0  0  0  0  0  0  0  0  0
   18.1459  -15.1031   24.6296 C   0  0  0  0  0  0  0  0  0  0  0  0
   14.8261  -10.3435   20.1328 C   0  0  0  0  0  0  0  0  0  0  0  0
   19.6649  -13.8715   21.3288 C   0  0  0  0  0  0  0  0  0  0  0  0
   19.5691  -14.6122   24.8281 C   0  0  0  0  0  0  0  0  0  0  0  0
   13.7216  -10.7958   21.0762 C   0  0  0  0  0  0  0  0  0  0  0  0
   19.8071  -13.3109   25.3061 C   0  0  0  0  0  0  0  0  0  0  0  0
   12.8500   -9.8475   21.6537 C   0  0  0  0  0  0  0  0  0  0  0  0
   21.1149  -12.8161   25.4203 C   0  0  0  0  0  0  0  0  0  0  0  0
   11.8084  -10.2645   22.5058 C   0  0  0  0  0  0  0  0  0  0  0  0
   22.2043  -13.6341   25.0731 C   0  0  0  0  0  0  0  0  0  0  0  0
   11.6256  -11.6332   22.7778 C   0  0  0  0  0  0  0  0  0  0  0  0
   21.9802  -14.9539   24.6379 C   0  0  0  0  0  0  0  0  0  0  0  0
   12.4938  -12.5824   22.2070 C   0  0  0  0  0  0  0  0  0  0  0  0
   20.6648  -15.4443   24.5158 C   0  0  0  0  0  0  0  0  0  0  0  0
   13.5398  -12.1656   21.3620 C   0  0  0  0  0  0  0  0  0  0  0  0
   18.3821  -11.1314   21.6826 H   0  0  0  0  0  0  0  0  0  0  0  0
   18.9886  -12.3015   18.9611 H   0  0  0  0  0  0  0  0  0  0  0  0
   19.7540  -10.9198   19.8166 H   0  0  0  0  0  0  0  0  0  0  0  0
   18.4663  -15.6839   22.5727 H   0  0  0  0  0  0  0  0  0  0  0  0
   16.6228  -10.0048   21.1796 H   0  0  0  0  0  0  0  0  0  0  0  0
   20.9496  -13.3731   19.6501 H   0  0  0  0  0  0  0  0  0  0  0  0
   21.1506  -12.3067   21.0815 H   0  0  0  0  0  0  0  0  0  0  0  0
   16.5560  -16.8365   23.4501 H   0  0  0  0  0  0  0  0  0  0  0  0
   15.7108  -15.4439   23.5625 H   0  0  0  0  0  0  0  0  0  0  0  0
   17.4700  -14.4235   25.1693 H   0  0  0  0  0  0  0  0  0  0  0  0
   18.0685  -16.1135   25.0576 H   0  0  0  0  0  0  0  0  0  0  0  0
   14.7578   -9.2515   20.0190 H   0  0  0  0  0  0  0  0  0  0  0  0
   14.6655  -10.8246   19.1567 H   0  0  0  0  0  0  0  0  0  0  0  0
   20.2358  -14.0998   22.2409 H   0  0  0  0  0  0  0  0  0  0  0  0
   19.4936  -14.7984   20.7618 H   0  0  0  0  0  0  0  0  0  0  0  0
   18.9733  -12.6853   25.5885 H   0  0  0  0  0  0  0  0  0  0  0  0
   12.9823   -8.7969   21.4413 H   0  0  0  0  0  0  0  0  0  0  0  0
   21.2843  -11.8098   25.7739 H   0  0  0  0  0  0  0  0  0  0  0  0
   11.1497   -9.5333   22.9506 H   0  0  0  0  0  0  0  0  0  0  0  0
   23.2116  -13.2505   25.1402 H   0  0  0  0  0  0  0  0  0  0  0  0
   10.8211  -11.9543   23.4229 H   0  0  0  0  0  0  0  0  0  0  0  0
   22.8178  -15.5917   24.3972 H   0  0  0  0  0  0  0  0  0  0  0  0
   12.3573  -13.6328   22.4177 H   0  0  0  0  0  0  0  0  0  0  0  0
   20.4953  -16.4577   24.1830 H   0  0  0  0  0  0  0  0  0  0  0  0
   14.2063  -12.8977   20.9305 H   0  0  0  0  0  0  0  0  0  0  0  0
  1  2  1  0  0  0  0
  1 14  1  0  0  0  0
  1  3  1  0  0  0  0
  2  5  1  0  0  0  0
  2  7  1  0  0  0  0
  3  8  1  0  0  0  0
  3  4  2  0  0  0  0
  5  6  2  0  0  0  0
  5  9  1  0  0  0  0
  7 10  1  0  0  0  0
  8 11  1  0  0  0  0
  8 12  1  0  0  0  0
  9 13  1  0  0  0  0
 10 14  1  0  0  0  0
 12 15  1  0  0  0  0
 13 16  1  0  0  0  0
 15 17  2  0  0  0  0
 15 25  1  0  0  0  0
 16 18  2  0  0  0  0
 16 26  1  0  0  0  0
 17 19  1  0  0  0  0
 18 20  1  0  0  0  0
 19 21  2  0  0  0  0
 20 22  2  0  0  0  0
 21 23  1  0  0  0  0
 22 24  1  0  0  0  0
 23 25  2  0  0  0  0
 24 26  2  0  0  0  0
  2 27  1  0  0  0  0
  7 28  1  0  0  0  0
  7 29  1  0  0  0  0
  8 30  1  0  0  0  0
  9 31  1  0  0  0  0
 10 32  1  0  0  0  0
 10 33  1  0  0  0  0
 11 34  1  0  0  0  0
 11 35  1  0  0  0  0
 12 36  1  0  0  0  0
 12 37  1  0  0  0  0
 13 38  1  0  0  0  0
 13 39  1  0  0  0  0
 14 40  1  0  0  0  0
 14 41  1  0  0  0  0
 17 42  1  0  0  0  0
 18 43  1  0  0  0  0
 19 44  1  0  0  0  0
 20 45  1  0  0  0  0
 21 46  1  0  0  0  0
 22 47  1  0  0  0  0
 23 48  1  0  0  0  0
 24 49  1  0  0  0  0
 25 50  1  0  0  0  0
 26 51  1  0  0  0  0
M  END
> <r_user_dG.exp>
-7.58

$$$$
5
  -OEChem-05162309453D
 Structure written by MMmdl.
 51 53  0     1  0  0  0  0  0999 V2000
   18.3833  -13.2487   21.6777 N   0  0  0  0  0  0  0  0  0  0  0  0
   18.2278  -11.9595   20.9752 C   0  0  2  0  0  0  0  0  0  0  0  0
   17.4784  -13.7664   22.5477 C   0  0  0  0  0  0  0  0  0  0  0  0
   16.4768  -13.1400   22.8994 O   0  0  0  0  0  0  0  0  0  0  0  0
   16.8531  -11.7833   20.2962 C   0  0  0  0  0  0  0  0  0  0  0  0
   16.4281  -12.6525   19.5327 O   0  0  0  0  0  0  0  0  0  0  0  0
   19.3563  -11.9389   19.9323 C   0  0  0  0  0  0  0  0  0  0  0  0
   17.6879  -15.1677   23.1537 C   0  0  2  0  0  0  0  0  0  0  0  0
   16.1691  -10.6729   20.5899 N   0  0  0  0  0  0  0  0  0  0  0  0
   20.4245  -12.8650   20.4723 C   0  0  0  0  0  0  0  0  0  0  0  0
   16.4280  -15.9253   23.0586 N   0  0  0  0  0  0  0  0  0  0  0  0
   18.1459  -15.1031   24.6296 C   0  0  0  0  0  0  0  0  0  0  0  0
   14.8261  -10.3435   20.1328 C   0  0  0  0  0  0  0  0  0  0  0  0
   19.6649  -13.8715   21.3288 C   0  0  0  0  0  0  0  0  0  0  0  0
   19.5691  -14.6122   24.8281 C   0  0  0  0  0  0  0  0  0  0  0  0
   13.7216  -10.7958   21.0762 C   0  0  0  0  0  0  0  0  0  0  0  0
   19.8071  -13.3109   25.3061 C   0  0  0  0  0  0  0  0  0  0  0  0
   12.8500   -9.8475   21.6537 C   0  0  0  0  0  0  0  0  0  0  0  0
   21.1149  -12.8161   25.4203 C   0  0  0  0  0  0  0  0  0  0  0  0
   11.8084  -10.2645   22.5058 C   0  0  0  0  0  0  0  0  0  0  0  0
   22.2043  -13.6341   25.0731 C   0  0  0  0  0  0  0  0  0  0  0  0
   11.6256  -11.6332   22.7778 C   0  0  0  0  0  0  0  0  0  0  0  0
   21.9802  -14.9539   24.6379 C   0  0  0  0  0  0  0  0  0  0  0  0
   12.4938  -12.5824   22.2070 C   0  0  0  0  0  0  0  0  0  0  0  0
   20.6648  -15.4443   24.5158 C   0  0  0  0  0  0  0  0  0  0  0  0
   13.5398  -12.1656   21.3620 C   0  0  0  0  0  0  0  0  0  0  0  0
   18.3821  -11.1314   21.6826 H   0  0  0  0  0  0  0  0  0  0  0  0
   15.5761  -12.3943   19.2011 H   0  0  0  0  0  0  0  0  0  0  0  0
   18.9886  -12.3015   18.9611 H   0  0  0  0  0  0  0  0  0  0  0  0
   19.7540  -10.9198   19.8166 H   0  0  0  0  0  0  0  0  0  0  0  0
   18.4663  -15.6839   22.5727 H   0  0  0  0  0  0  0  0  0  0  0  0
   20.9496  -13.3731   19.6501 H   0  0  0  0  0  0  0  0  0  0  0  0
   21.1506  -12.3067   21.0815 H   0  0  0  0  0  0  0  0  0  0  0  0
   16.5560  -16.8365   23.4501 H   0  0  0  0  0  0  0  0  0  0  0  0
   15.7108  -15.4439   23.5625 H   0  0  0  0  0  0  0  0  0  0  0  0
   17.4700  -14.4235   25.1693 H   0  0  0  0  0  0  0  0  0  0  0  0
   18.0685  -16.1135   25.0576 H   0  0  0  0  0  0  0  0  0  0  0  0
   14.7578   -9.2515   20.0190 H   0  0  0  0  0  0  0  0  0  0  0  0
   14.6655  -10.8246   19.1567 H   0  0  0  0  0  0  0  0  0  0  0  0
   20.2358  -14.0998   22.2409 H   0  0  0  0  0  0  0  0  0  0  0  0
   19.4936  -14.7984   20.7618 H   0  0  0  0  0  0  0  0  0  0  0  0
   18.9733  -12.6853   25.5885 H   0  0  0  0  0  0  0  0  0  0  0  0
   12.9823   -8.7969   21.4413 H   0  0  0  0  0  0  0  0  0  0  0  0
   21.2843  -11.8098   25.7739 H   0  0  0  0  0  0  0  0  0  0  0  0
   11.1497   -9.5333   22.9506 H   0  0  0  0  0  0  0  0  0  0  0  0
   23.2116  -13.2505   25.1402 H   0  0  0  0  0  0  0  0  0  0  0  0
   10.8211  -11.9543   23.4229 H   0  0  0  0  0  0  0  0  0  0  0  0
   22.8178  -15.5917   24.3972 H   0  0  0  0  0  0  0  0  0  0  0  0
   12.3573  -13.6328   22.4177 H   0  0  0  0  0  0  0  0  0  0  0  0
   20.4953  -16.4577   24.1830 H   0  0  0  0  0  0  0  0  0  0  0  0
   14.2063  -12.8977   20.9305 H   0  0  0  0  0  0  0  0  0  0  0  0
  1  2  1  0  0  0  0
  1 14  1  0  0  0  0
  1  3  1  0  0  0  0
  2  5  1  0  0  0  0
  2  7  1  0  0  0  0
  3  8  1  0  0  0  0
  3  4  2  0  0  0  0
  5  6  1  0  0  0  0
  5  9  2  0  0  0  0
  7 10  1  0  0  0  0
  8 11  1  0  0  0  0
  8 12  1  0  0  0  0
  9 13  1  0  0  0  0
 10 14  1  0  0  0  0
 12 15  1  0  0  0  0
 13 16  1  0  0  0  0
 15 17  2  0  0  0  0
 15 25  1  0  0  0  0
 16 18  2  0  0  0  0
 16 26  1  0  0  0  0
 17 19  1  0  0  0  0
 18 20  1  0  0  0  0
 19 21  2  0  0  0  0
 20 22  2  0  0  0  0
 21 23  1  0  0  0  0
 22 24  1  0  0  0  0
 23 25  2  0  0  0  0
 24 26  2  0  0  0  0
  2 27  1  0  0  0  0
  6 28  1  0  0  0  0
  7 29  1  0  0  0  0
  7 30  1  0  0  0  0
  8 31  1  0  0  0  0
 10 32  1  0  0  0  0
 10 33  1  0  0  0  0
 11 34  1  0  0  0  0
 11 35  1  0  0  0  0
 12 36  1  0  0  0  0
 12 37  1  0  0  0  0
 13 38  1  0  0  0  0
 13 39  1  0  0  0  0
 14 40  1  0  0  0  0
 14 41  1  0  0  0  0
 17 42  1  0  0  0  0
 18 43  1  0  0  0  0
 19 44  1  0  0  0  0
 20 45  1  0  0  0  0
 21 46  1  0  0  0  0
 22 47  1  0  0  0  0
 23 48  1  0  0  0  0
 24 49  1  0  0  0  0
 25 50  1  0  0  0  0
 26 51  1  0  0  0  0
M  END
> <r_user_dG.exp>
-7.58

$$$$
5
  -OEChem-05162309453D
 Structure written by MMmdl.
 51 53  0     1  0  0  0  0  0999 V2000
   18.3833  -13.2487   21.6777 N   0  0  0  0  0  0  0  0  0  0  0  0
   18.2278  -11.9595   20.9752 C   0  0  2  0  0  0  0  0  0  0  0  0
   17.4784  -13.7664   22.5477 C   0  0  0  0  0  0  0  0  0  0  0  0
   16.4768  -13.1400   22.8994 O   0  0  0  0  0  0  0  0  0  0  0  0
   16.8531  -11.7833   20.2962 C   0  0  0  0  0  0  0  0  0  0  0  0
   16.4281  -12.6525   19.5327 O   0  0  0  0  0  0  0  0  0  0  0  0
   19.3563  -11.9389   19.9323 C   0  0  0  0  0  0  0  0  0  0  0  0
   17.6879  -15.1677   23.1537 C   0  0  2  0  0  0  0  0  0  0  0  0
   16.1691  -10.6729   20.5899 N   0  0  0  0  0  0  0  0  0  0  0  0
   20.4245  -12.8650   20.4723 C   0  0  0  0  0  0  0  0  0  0  0  0
   16.4280  -15.9253   23.0586 N   0  0  0  0  0  0  0  0  0  0  0  0
   18.1459  -15.1031   24.6296 C   0  0  0  0  0  0  0  0  0  0  0  0
   14.8261  -10.3435   20.1328 C   0  0  0  0  0  0  0  0  0  0  0  0
   19.6649  -13.8715   21.3288 C   0  0  0  0  0  0  0  0  0  0  0  0
   19.5691  -14.6122   24.8281 C   0  0  0  0  0  0  0  0  0  0  0  0
   13.7216  -10.7958   21.0762 C   0  0  0  0  0  0  0  0  0  0  0  0
   19.8071  -13.3109   25.3061 C   0  0  0  0  0  0  0  0  0  0  0  0
   12.8500   -9.8475   21.6537 C   0  0  0  0  0  0  0  0  0  0  0  0
   21.1149  -12.8161   25.4203 C   0  0  0  0  0  0  0  0  0  0  0  0
   11.8084  -10.2645   22.5058 C   0  0  0  0  0  0  0  0  0  0  0  0
   22.2043  -13.6341   25.0731 C   0  0  0  0  0  0  0  0  0  0  0  0
   11.6256  -11.6332   22.7778 C   0  0  0  0  0  0  0  0  0  0  0  0
   21.9802  -14.9539   24.6379 C   0  0  0  0  0  0  0  0  0  0  0  0
   12.4938  -12.5824   22.2070 C   0  0  0  0  0  0  0  0  0  0  0  0
   20.6648  -15.4443   24.5158 C   0  0  0  0  0  0  0  0  0  0  0  0
   13.5398  -12.1656   21.3620 C   0  0  0  0  0  0  0  0  0  0  0  0
   18.3821  -11.1314   21.6826 H   0  0  0  0  0  0  0  0  0  0  0  0
   16.9169  -14.2068   21.7106 H   0  0  0  0  0  0  0  0  0  0  0  0
   15.9706  -13.6665   23.5068 H   0  0  0  0  0  0  0  0  0  0  0  0
   18.9886  -12.3015   18.9611 H   0  0  0  0  0  0  0  0  0  0  0  0
   19.7540  -10.9198   19.8166 H   0  0  0  0  0  0  0  0  0  0  0  0
   16.6228  -10.0048   21.1796 H   0  0  0  0  0  0  0  0  0  0  0  0
   20.9496  -13.3731   19.6501 H   0  0  0  0  0  0  0  0  0  0  0  0
   21.1506  -12.3067   21.0815 H   0  0  0  0  0  0  0  0  0  0  0  0
   16.1160  -16.2471   23.9525 H   0  0  0  0  0  0  0  0  0  0  0  0
   17.4700  -14.4235   25.1693 H   0  0  0  0  0  0  0  0  0  0  0  0
   18.0685  -16.1135   25.0576 H   0  0  0  0  0  0  0  0  0  0  0  0
   14.7578   -9.2515   20.0190 H   0  0  0  0  0  0  0  0  0  0  0  0
   14.6655  -10.8246   19.1567 H   0  0  0  0  0  0  0  0  0  0  0  0
   20.2358  -14.0998   22.2409 H   0  0  0  0  0  0  0  0  0  0  0  0
   19.4936  -14.7984   20.7618 H   0  0  0  0  0  0  0  0  0  0  0  0
   18.9733  -12.6853   25.5885 H   0  0  0  0  0  0  0  0  0  0  0  0
   12.9823   -8.7969   21.4413 H   0  0  0  0  0  0  0  0  0  0  0  0
   21.2843  -11.8098   25.7739 H   0  0  0  0  0  0  0  0  0  0  0  0
   11.1497   -9.5333   22.9506 H   0  0  0  0  0  0  0  0  0  0  0  0
   23.2116  -13.2505   25.1402 H   0  0  0  0  0  0  0  0  0  0  0  0
   10.8211  -11.9543   23.4229 H   0  0  0  0  0  0  0  0  0  0  0  0
   22.8178  -15.5917   24.3972 H   0  0  0  0  0  0  0  0  0  0  0  0
   12.3573  -13.6328   22.4177 H   0  0  0  0  0  0  0  0  0  0  0  0
   20.4953  -16.4577   24.1830 H   0  0  0  0  0  0  0  0  0  0  0  0
   14.2063  -12.8977   20.9305 H   0  0  0  0  0  0  0  0  0  0  0  0
  1  2  1  0  0  0  0
  1 14  1  0  0  0  0
  1  3  1  0  0  0  0
  2  5  1  0  0  0  0
  2  7  1  0  0  0  0
  3  8  1  0  0  0  0
  3  4  1  0  0  0  0
  5  6  2  0  0  0  0
  5  9  1  0  0  0  0
  7 10  1  0  0  0  0
  8 11  2  0  0  0  0
  8 12  1  0  0  0  0
  9 13  1  0  0  0  0
 10 14  1  0  0  0  0
 12 15  1  0  0  0  0
 13 16  1  0  0  0  0
 15 17  2  0  0  0  0
 15 25  1  0  0  0  0
 16 18  2  0  0  0  0
 16 26  1  0  0  0  0
 17 19  1  0  0  0  0
 18 20  1  0  0  0  0
 19 21  2  0  0  0  0
 20 22  2  0  0  0  0
 21 23  1  0  0  0  0
 22 24  1  0  0  0  0
 23 25  2  0  0  0  0
 24 26  2  0  0  0  0
  2 27  1  0  0  0  0
  3 28  1  0  0  0  0
  4 29  1  0  0  0  0
  7 30  1  0  0  0  0
  7 31  1  0  0  0  0
  9 32  1  0  0  0  0
 10 33  1  0  0  0  0
 10 34  1  0  0  0  0
 11 35  1  0  0  0  0
 12 36  1  0  0  0  0
 12 37  1  0  0  0  0
 13 38  1  0  0  0  0
 13 39  1  0  0  0  0
 14 40  1  0  0  0  0
 14 41  1  0  0  0  0
 17 42  1  0  0  0  0
 18 43  1  0  0  0  0
 19 44  1  0  0  0  0
 20 45  1  0  0  0  0
 21 46  1  0  0  0  0
 22 47  1  0  0  0  0
 23 48  1  0  0  0  0
 24 49  1  0  0  0  0
 25 50  1  0  0  0  0
 26 51  1  0  0  0  0
M  END
> <r_user_dG.exp>
-7.58

$$$$
5
  -OEChem-05162309453D
 Structure written by MMmdl.
 51 53  0     1  0  0  0  0  0999 V2000
   18.3833  -13.2487   21.6777 N   0  0  0  0  0  0  0  0  0  0  0  0
   18.2278  -11.9595   20.9752 C   0  0  2  0  0  0  0  0  0  0  0  0
   17.4784  -13.7664   22.5477 C   0  0  0  0  0  0  0  0  0  0  0  0
   16.4768  -13.1400   22.8994 O   0  0  0  0  0  0  0  0  0  0  0  0
   16.8531  -11.7833   20.2962 C   0  0  0  0  0  0  0  0  0  0  0  0
   16.4281  -12.6525   19.5327 O   0  0  0  0  0  0  0  0  0  0  0  0
   19.3563  -11.9389   19.9323 C   0  0  0  0  0  0  0  0  0  0  0  0
   17.6879  -15.1677   23.1537 C   0  0  2  0  0  0  0  0  0  0  0  0
   16.1691  -10.6729   20.5899 N   0  0  0  0  0  0  0  0  0  0  0  0
   20.4245  -12.8650   20.4723 C   0  0  0  0  0  0  0  0  0  0  0  0
   16.4280  -15.9253   23.0586 N   0  0  0  0  0  0  0  0  0  0  0  0
   18.1459  -15.1031   24.6296 C   0  0  0  0  0  0  0  0  0  0  0  0
   14.8261  -10.3435   20.1328 C   0  0  0  0  0  0  0  0  0  0  0  0
   19.6649  -13.8715   21.3288 C   0  0  0  0  0  0  0  0  0  0  0  0
   19.5691  -14.6122   24.8281 C   0  0  0  0  0  0  0  0  0  0  0  0
   13.7216  -10.7958   21.0762 C   0  0  0  0  0  0  0  0  0  0  0  0
   19.8071  -13.3109   25.3061 C   0  0  0  0  0  0  0  0  0  0  0  0
   12.8500   -9.8475   21.6537 C   0  0  0  0  0  0  0  0  0  0  0  0
   21.1149  -12.8161   25.4203 C   0  0  0  0  0  0  0  0  0  0  0  0
   11.8084  -10.2645   22.5058 C   0  0  0  0  0  0  0  0  0  0  0  0
   22.2043  -13.6341   25.0731 C   0  0  0  0  0  0  0  0  0  0  0  0
   11.6256  -11.6332   22.7778 C   0  0  0  0  0  0  0  0  0  0  0  0
   21.9802  -14.9539   24.6379 C   0  0  0  0  0  0  0  0  0  0  0  0
   12.4938  -12.5824   22.2070 C   0  0  0  0  0  0  0  0  0  0  0  0
   20.6648  -15.4443   24.5158 C   0  0  0  0  0  0  0  0  0  0  0  0
   13.5398  -12.1656   21.3620 C   0  0  0  0  0  0  0  0  0  0  0  0
   18.3821  -11.1314   21.6826 H   0  0  0  0  0  0  0  0  0  0  0  0
   16.9169  -14.2068   21.7106 H   0  0  0  0  0  0  0  0  0  0  0  0
   15.9706  -13.6665   23.5068 H   0  0  0  0  0  0  0  0  0  0  0  0
   15.5761  -12.3943   19.2011 H   0  0  0  0  0  0  0  0  0  0  0  0
   18.9886  -12.3015   18.9611 H   0  0  0  0  0  0  0  0  0  0  0  0
   19.7540  -10.9198   19.8166 H   0  0  0  0  0  0  0  0  0  0  0  0
   20.9496  -13.3731   19.6501 H   0  0  0  0  0  0  0  0  0  0  0  0
   21.1506  -12.3067   21.0815 H   0  0  0  0  0  0  0  0  0  0  0  0
   16.1160  -16.2471   23.9525 H   0  0  0  0  0  0  0  0  0  0  0  0
   17.4700  -14.4235   25.1693 H   0  0  0  0  0  0  0  0  0  0  0  0
   18.0685  -16.1135   25.0576 H   0  0  0  0  0  0  0  0  0  0  0  0
   14.7578   -9.2515   20.0190 H   0  0  0  0  0  0  0  0  0  0  0  0
   14.6655  -10.8246   19.1567 H   0  0  0  0  0  0  0  0  0  0  0  0
   20.2358  -14.0998   22.2409 H   0  0  0  0  0  0  0  0  0  0  0  0
   19.4936  -14.7984   20.7618 H   0  0  0  0  0  0  0  0  0  0  0  0
   18.9733  -12.6853   25.5885 H   0  0  0  0  0  0  0  0  0  0  0  0
   12.9823   -8.7969   21.4413 H   0  0  0  0  0  0  0  0  0  0  0  0
   21.2843  -11.8098   25.7739 H   0  0  0  0  0  0  0  0  0  0  0  0
   11.1497   -9.5333   22.9506 H   0  0  0  0  0  0  0  0  0  0  0  0
   23.2116  -13.2505   25.1402 H   0  0  0  0  0  0  0  0  0  0  0  0
   10.8211  -11.9543   23.4229 H   0  0  0  0  0  0  0  0  0  0  0  0
   22.8178  -15.5917   24.3972 H   0  0  0  0  0  0  0  0  0  0  0  0
   12.3573  -13.6328   22.4177 H   0  0  0  0  0  0  0  0  0  0  0  0
   20.4953  -16.4577   24.1830 H   0  0  0  0  0  0  0  0  0  0  0  0
   14.2063  -12.8977   20.9305 H   0  0  0  0  0  0  0  0  0  0  0  0
  1  2  1  0  0  0  0
  1 14  1  0  0  0  0
  1  3  1  0  0  0  0
  2  5  1  0  0  0  0
  2  7  1  0  0  0  0
  3  8  1  0  0  0  0
  3  4  1  0  0  0  0
  5  6  1  0  0  0  0
  5  9  2  0  0  0  0
  7 10  1  0  0  0  0
  8 11  2  0  0  0  0
  8 12  1  0  0  0  0
  9 13  1  0  0  0  0
 10 14  1  0  0  0  0
 12 15  1  0  0  0  0
 13 16  1  0  0  0  0
 15 17  2  0  0  0  0
 15 25  1  0  0  0  0
 16 18  2  0  0  0  0
 16 26  1  0  0  0  0
 17 19  1  0  0  0  0
 18 20  1  0  0  0  0
 19 21  2  0  0  0  0
 20 22  2  0  0  0  0
 21 23  1  0  0  0  0
 22 24  1  0  0  0  0
 23 25  2  0  0  0  0
 24 26  2  0  0  0  0
  2 27  1  0  0  0  0
  3 28  1  0  0  0  0
  4 29  1  0  0  0  0
  6 30  1  0  0  0  0
  7 31  1  0  0  0  0
  7 32  1  0  0  0  0
 10 33  1  0  0  0  0
 10 34  1  0  0  0  0
 11 35  1  0  0  0  0
 12 36  1  0  0  0  0
 12 37  1  0  0  0  0
 13 38  1  0  0  0  0
 13 39  1  0  0  0  0
 14 40  1  0  0  0  0
 14 41  1  0  0  0  0
 17 42  1  0  0  0  0
 18 43  1  0  0  0  0
 19 44  1  0  0  0  0
 20 45  1  0  0  0  0
 21 46  1  0  0  0  0
 22 47  1  0  0  0  0
 23 48  1  0  0  0  0
 24 49  1  0  0  0  0
 25 50  1  0  0  0  0
 26 51  1  0  0  0  0
M  END
> <r_user_dG.exp>
-7.58

$$$$
5
  -OEChem-05162309453D
 Structure written by MMmdl.
 51 53  0     1  0  0  0  0  0999 V2000
   18.3833  -13.2487   21.6777 N   0  0  0  0  0  0  0  0  0  0  0  0
   18.2278  -11.9595   20.9752 C   0  0  2  0  0  0  0  0  0  0  0  0
   17.4784  -13.7664   22.5477 C   0  0  0  0  0  0  0  0  0  0  0  0
   16.4768  -13.1400   22.8994 O   0  0  0  0  0  0  0  0  0  0  0  0
   16.8531  -11.7833   20.2962 C   0  0  0  0  0  0  0  0  0  0  0  0
   16.4281  -12.6525   19.5327 O   0  0  0  0  0  0  0  0  0  0  0  0
   19.3563  -11.9389   19.9323 C   0  0  0  0  0  0  0  0  0  0  0  0
   17.6879  -15.1677   23.1537 C   0  0  2  0  0  0  0  0  0  0  0  0
   16.1691  -10.6729   20.5899 N   0  0  0  0  0  0  0  0  0  0  0  0
   20.4245  -12.8650   20.4723 C   0  0  0  0  0  0  0  0  0  0  0  0
   16.4280  -15.9253   23.0586 N   0  0  0  0  0  0  0  0  0  0  0  0
   18.1459  -15.1031   24.6296 C   0  0  0  0  0  0  0  0  0  0  0  0
   14.8261  -10.3435   20.1328 C   0  0  0  0  0  0  0  0  0  0  0  0
   19.6649  -13.8715   21.3288 C   0  0  0  0  0  0  0  0  0  0  0  0
   19.5691  -14.6122   24.8281 C   0  0  0  0  0  0  0  0  0  0  0  0
   13.7216  -10.7958   21.0762 C   0  0  0  0  0  0  0  0  0  0  0  0
   19.8071  -13.3109   25.3061 C   0  0  0  0  0  0  0  0  0  0  0  0
   12.8500   -9.8475   21.6537 C   0  0  0  0  0  0  0  0  0  0  0  0
   21.1149  -12.8161   25.4203 C   0  0  0  0  0  0  0  0  0  0  0  0
   11.8084  -10.2645   22.5058 C   0  0  0  0  0  0  0  0  0  0  0  0
   22.2043  -13.6341   25.0731 C   0  0  0  0  0  0  0  0  0  0  0  0
   11.6256  -11.6332   22.7778 C   0  0  0  0  0  0  0  0  0  0  0  0
   21.9802  -14.9539   24.6379 C   0  0  0  0  0  0  0  0  0  0  0  0
   12.4938  -12.5824   22.2070 C   0  0  0  0  0  0  0  0  0  0  0  0
   20.6648  -15.4443   24.5158 C   0  0  0  0  0  0  0  0  0  0  0  0
   13.5398  -12.1656   21.3620 C   0  0  0  0  0  0  0  0  0  0  0  0
   18.3821  -11.1314   21.6826 H   0  0  0  0  0  0  0  0  0  0  0  0
   15.9706  -13.6665   23.5068 H   0  0  0  0  0  0  0  0  0  0  0  0
   18.9886  -12.3015   18.9611 H   0  0  0  0  0  0  0  0  0  0  0  0
   19.7540  -10.9198   19.8166 H   0  0  0  0  0  0  0  0  0  0  0  0
   16.6228  -10.0048   21.1796 H   0  0  0  0  0  0  0  0  0  0  0  0
   20.9496  -13.3731   19.6501 H   0  0  0  0  0  0  0  0  0  0  0  0
   21.1506  -12.3067   21.0815 H   0  0  0  0  0  0  0  0  0  0  0  0
   16.5560  -16.8365   23.4501 H   0  0  0  0  0  0  0  0  0  0  0  0
   15.7108  -15.4439   23.5625 H   0  0  0  0  0  0  0  0  0  0  0  0
   17.4700  -14.4235   25.1693 H   0  0  0  0  0  0  0  0  0  0  0  0
   18.0685  -16.1135   25.0576 H   0  0  0  0  0  0  0  0  0  0  0  0
   14.7578   -9.2515   20.0190 H   0  0  0  0  0  0  0  0  0  0  0  0
   14.6655  -10.8246   19.1567 H   0  0  0  0  0  0  0  0  0  0  0  0
   20.2358  -14.0998   22.2409 H   0  0  0  0  0  0  0  0  0  0  0  0
   19.4936  -14.7984   20.7618 H   0  0  0  0  0  0  0  0  0  0  0  0
   18.9733  -12.6853   25.5885 H   0  0  0  0  0  0  0  0  0  0  0  0
   12.9823   -8.7969   21.4413 H   0  0  0  0  0  0  0  0  0  0  0  0
   21.2843  -11.8098   25.7739 H   0  0  0  0  0  0  0  0  0  0  0  0
   11.1497   -9.5333   22.9506 H   0  0  0  0  0  0  0  0  0  0  0  0
   23.2116  -13.2505   25.1402 H   0  0  0  0  0  0  0  0  0  0  0  0
   10.8211  -11.9543   23.4229 H   0  0  0  0  0  0  0  0  0  0  0  0
   22.8178  -15.5917   24.3972 H   0  0  0  0  0  0  0  0  0  0  0  0
   12.3573  -13.6328   22.4177 H   0  0  0  0  0  0  0  0  0  0  0  0
   20.4953  -16.4577   24.1830 H   0  0  0  0  0  0  0  0  0  0  0  0
   14.2063  -12.8977   20.9305 H   0  0  0  0  0  0  0  0  0  0  0  0
  1  2  1  0  0  0  0
  1 14  1  0  0  0  0
  1  3  1  0  0  0  0
  2  5  1  0  0  0  0
  2  7  1  0  0  0  0
  3  8  2  0  0  0  0
  3  4  1  0  0  0  0
  5  6  2  0  0  0  0
  5  9  1  0  0  0  0
  7 10  1  0  0  0  0
  8 11  1  0  0  0  0
  8 12  1  0  0  0  0
  9 13  1  0  0  0  0
 10 14  1  0  0  0  0
 12 15  1  0  0  0  0
 13 16  1  0  0  0  0
 15 17  2  0  0  0  0
 15 25  1  0  0  0  0
 16 18  2  0  0  0  0
 16 26  1  0  0  0  0
 17 19  1  0  0  0  0
 18 20  1  0  0  0  0
 19 21  2  0  0  0  0
 20 22  2  0  0  0  0
 21 23  1  0  0  0  0
 22 24  1  0  0  0  0
 23 25  2  0  0  0  0
 24 26  2  0  0  0  0
  2 27  1  0  0  0  0
  4 28  1  0  0  0  0
  7 29  1  0  0  0  0
  7 30  1  0  0  0  0
  9 31  1  0  0  0  0
 10 32  1  0  0  0  0
 10 33  1  0  0  0  0
 11 34  1  0  0  0  0
 11 35  1  0  0  0  0
 12 36  1  0  0  0  0
 12 37  1  0  0  0  0
 13 38  1  0  0  0  0
 13 39  1  0  0  0  0
 14 40  1  0  0  0  0
 14 41  1  0  0  0  0
 17 42  1  0  0  0  0
 18 43  1  0  0  0  0
 19 44  1  0  0  0  0
 20 45  1  0  0  0  0
 21 46  1  0  0  0  0
 22 47  1  0  0  0  0
 23 48  1  0  0  0  0
 24 49  1  0  0  0  0
 25 50  1  0  0  0  0
 26 51  1  0  0  0  0
M  END
> <r_user_dG.exp>
-7.58

$$$$
5
  -OEChem-05162309453D
 Structure written by MMmdl.
 51 53  0     1  0  0  0  0  0999 V2000
   18.3833  -13.2487   21.6777 N   0  0  0  0  0  0  0  0  0  0  0  0
   18.2278  -11.9595   20.9752 C   0  0  2  0  0  0  0  0  0  0  0  0
   17.4784  -13.7664   22.5477 C   0  0  0  0  0  0  0  0  0  0  0  0
   16.4768  -13.1400   22.8994 O   0  0  0  0  0  0  0  0  0  0  0  0
   16.8531  -11.7833   20.2962 C   0  0  0  0  0  0  0  0  0  0  0  0
   16.4281  -12.6525   19.5327 O   0  0  0  0  0  0  0  0  0  0  0  0
   19.3563  -11.9389   19.9323 C   0  0  0  0  0  0  0  0  0  0  0  0
   17.6879  -15.1677   23.1537 C   0  0  2  0  0  0  0  0  0  0  0  0
   16.1691  -10.6729   20.5899 N   0  0  0  0  0  0  0  0  0  0  0  0
   20.4245  -12.8650   20.4723 C   0  0  0  0  0  0  0  0  0  0  0  0
   16.4280  -15.9253   23.0586 N   0  0  0  0  0  0  0  0  0  0  0  0
   18.1459  -15.1031   24.6296 C   0  0  0  0  0  0  0  0  0  0  0  0
   14.8261  -10.3435   20.1328 C   0  0  0  0  0  0  0  0  0  0  0  0
   19.6649  -13.8715   21.3288 C   0  0  0  0  0  0  0  0  0  0  0  0
   19.5691  -14.6122   24.8281 C   0  0  0  0  0  0  0  0  0  0  0  0
   13.7216  -10.7958   21.0762 C   0  0  0  0  0  0  0  0  0  0  0  0
   19.8071  -13.3109   25.3061 C   0  0  0  0  0  0  0  0  0  0  0  0
   12.8500   -9.8475   21.6537 C   0  0  0  0  0  0  0  0  0  0  0  0
   21.1149  -12.8161   25.4203 C   0  0  0  0  0  0  0  0  0  0  0  0
   11.8084  -10.2645   22.5058 C   0  0  0  0  0  0  0  0  0  0  0  0
   22.2043  -13.6341   25.0731 C   0  0  0  0  0  0  0  0  0  0  0  0
   11.6256  -11.6332   22.7778 C   0  0  0  0  0  0  0  0  0  0  0  0
   21.9802  -14.9539   24.6379 C   0  0  0  0  0  0  0  0  0  0  0  0
   12.4938  -12.5824   22.2070 C   0  0  0  0  0  0  0  0  0  0  0  0
   20.6648  -15.4443   24.5158 C   0  0  0  0  0  0  0  0  0  0  0  0
   13.5398  -12.1656   21.3620 C   0  0  0  0  0  0  0  0  0  0  0  0
   18.3821  -11.1314   21.6826 H   0  0  0  0  0  0  0  0  0  0  0  0
   15.9706  -13.6665   23.5068 H   0  0  0  0  0  0  0  0  0  0  0  0
   15.5761  -12.3943   19.2011 H   0  0  0  0  0  0  0  0  0  0  0  0
   18.9886  -12.3015   18.9611 H   0  0  0  0  0  0  0  0  0  0  0  0
   19.7540  -10.9198   19.8166 H   0  0  0  0  0  0  0  0  0  0  0  0
   20.9496  -13.3731   19.6501 H   0  0  0  0  0  0  0  0  0  0  0  0
   21.1506  -12.3067   21.0815 H   0  0  0  0  0  0  0  0  0  0  0  0
   16.5560  -16.8365   23.4501 H   0  0  0  0  0  0  0  0  0  0  0  0
   15.7108  -15.4439   23.5625 H   0  0  0  0  0  0  0  0  0  0  0  0
   17.4700  -14.4235   25.1693 H   0  0  0  0  0  0  0  0  0  0  0  0
   18.0685  -16.1135   25.0576 H   0  0  0  0  0  0  0  0  0  0  0  0
   14.7578   -9.2515   20.0190 H   0  0  0  0  0  0  0  0  0  0  0  0
   14.6655  -10.8246   19.1567 H   0  0  0  0  0  0  0  0  0  0  0  0
   20.2358  -14.0998   22.2409 H   0  0  0  0  0  0  0  0  0  0  0  0
   19.4936  -14.7984   20.7618 H   0  0  0  0  0  0  0  0  0  0  0  0
   18.9733  -12.6853   25.5885 H   0  0  0  0  0  0  0  0  0  0  0  0
   12.9823   -8.7969   21.4413 H   0  0  0  0  0  0  0  0  0  0  0  0
   21.2843  -11.8098   25.7739 H   0  0  0  0  0  0  0  0  0  0  0  0
   11.1497   -9.5333   22.9506 H   0  0  0  0  0  0  0  0  0  0  0  0
   23.2116  -13.2505   25.1402 H   0  0  0  0  0  0  0  0  0  0  0  0
   10.8211  -11.9543   23.4229 H   0  0  0  0  0  0  0  0  0  0  0  0
   22.8178  -15.5917   24.3972 H   0  0  0  0  0  0  0  0  0  0  0  0
   12.3573  -13.6328   22.4177 H   0  0  0  0  0  0  0  0  0  0  0  0
   20.4953  -16.4577   24.1830 H   0  0  0  0  0  0  0  0  0  0  0  0
   14.2063  -12.8977   20.9305 H   0  0  0  0  0  0  0  0  0  0  0  0
  1  2  1  0  0  0  0
  1 14  1  0  0  0  0
  1  3  1  0  0  0  0
  2  5  1  0  0  0  0
  2  7  1  0  0  0  0
  3  8  2  0  0  0  0
  3  4  1  0  0  0  0
  5  6  1  0  0  0  0
  5  9  2  0  0  0  0
  7 10  1  0  0  0  0
  8 11  1  0  0  0  0
  8 12  1  0  0  0  0
  9 13  1  0  0  0  0
 10 14  1  0  0  0  0
 12 15  1  0  0  0  0
 13 16  1  0  0  0  0
 15 17  2  0  0  0  0
 15 25  1  0  0  0  0
 16 18  2  0  0  0  0
 16 26  1  0  0  0  0
 17 19  1  0  0  0  0
 18 20  1  0  0  0  0
 19 21  2  0  0  0  0
 20 22  2  0  0  0  0
 21 23  1  0  0  0  0
 22 24  1  0  0  0  0
 23 25  2  0  0  0  0
 24 26  2  0  0  0  0
  2 27  1  0  0  0  0
  4 28  1  0  0  0  0
  6 29  1  0  0  0  0
  7 30  1  0  0  0  0
  7 31  1  0  0  0  0
 10 32  1  0  0  0  0
 10 33  1  0  0  0  0
 11 34  1  0  0  0  0
 11 35  1  0  0  0  0
 12 36  1  0  0  0  0
 12 37  1  0  0  0  0
 13 38  1  0  0  0  0
 13 39  1  0  0  0  0
 14 40  1  0  0  0  0
 14 41  1  0  0  0  0
 17 42  1  0  0  0  0
 18 43  1  0  0  0  0
 19 44  1  0  0  0  0
 20 45  1  0  0  0  0
 21 46  1  0  0  0  0
 22 47  1  0  0  0  0
 23 48  1  0  0  0  0
 24 49  1  0  0  0  0
 25 50  1  0  0  0  0
 26 51  1  0  0  0  0
M  END
> <r_user_dG.exp>
-7.58

$$$$
