6e
  -OEChem-05162309453D
 Structure written by MMmdl.
 51 53  0     1  0  0  0  0  0999 V2000
   18.2497  -13.2104   21.6962 N   0  0  0  0  0  0  0  0  0  0  0  0
   18.0488  -11.9126   21.0217 C   0  0  2  0  0  0  0  0  0  0  0  0
   17.3792  -13.7553   22.5811 C   0  0  0  0  0  0  0  0  0  0  0  0
   16.3817  -13.1440   22.9691 O   0  0  0  0  0  0  0  0  0  0  0  0
   16.6479  -11.7402   20.3852 C   0  0  0  0  0  0  0  0  0  0  0  0
   16.1896  -12.6294   19.6672 O   0  0  0  0  0  0  0  0  0  0  0  0
   19.1544  -11.8553   19.9573 C   0  0  0  0  0  0  0  0  0  0  0  0
   17.6313  -15.1609   23.1609 C   0  0  2  0  0  0  0  0  0  0  0  0
   15.9835  -10.6080   20.6535 N   0  0  0  0  0  0  0  0  0  0  0  0
   20.2512  -12.7816   20.4429 C   0  0  0  0  0  0  0  0  0  0  0  0
   16.3889  -15.9469   23.0741 N   0  0  0  0  0  0  0  0  0  0  0  0
   18.1164  -15.1072   24.6285 C   0  0  0  0  0  0  0  0  0  0  0  0
   14.6257  -10.2861   20.2180 C   0  0  0  0  0  0  0  0  0  0  0  0
   19.5309  -13.8096   21.3059 C   0  0  0  0  0  0  0  0  0  0  0  0
   19.5409  -14.6106   24.8076 C   0  0  0  0  0  0  0  0  0  0  0  0
   13.5701  -10.3803   21.3113 C   0  0  0  0  0  0  0  0  0  0  0  0
   20.6348  -15.4379   24.4770 C   0  0  0  0  0  0  0  0  0  0  0  0
   12.7537  -11.5266   21.4406 C   0  0  0  0  0  0  0  0  0  0  0  0
   21.9515  -14.9527   24.6066 C   0  0  0  0  0  0  0  0  0  0  0  0
   11.7654  -11.5815   22.4439 C   0  0  0  0  0  0  0  0  0  0  0  0
   22.1796  -13.6411   25.0642 C   0  0  0  0  0  0  0  0  0  0  0  0
   11.5676  -10.4862   23.3077 C   0  0  0  0  0  0  0  0  0  0  0  0
   21.0922  -12.8253   25.4224 C   0  0  0  0  0  0  0  0  0  0  0  0
   12.3755   -9.3399   23.1820 C   0  0  0  0  0  0  0  0  0  0  0  0
   19.7830  -13.3164   25.3030 C   0  0  0  0  0  0  0  0  0  0  0  0
   13.3727   -9.2906   22.1874 C   0  0  0  0  0  0  0  0  0  0  0  0
   12.8930  -12.5678   20.5872 F   0  0  0  0  0  0  0  0  0  0  0  0
   12.1698   -8.0089   24.2632 Cl  0  0  0  0  0  0  0  0  0  0  0  0
   18.2091  -11.0962   21.7413 H   0  0  0  0  0  0  0  0  0  0  0  0
   18.7677  -12.1973   18.9860 H   0  0  0  0  0  0  0  0  0  0  0  0
   19.5371  -10.8287   19.8588 H   0  0  0  0  0  0  0  0  0  0  0  0
   18.4111  -15.6489   22.5579 H   0  0  0  0  0  0  0  0  0  0  0  0
   16.4599   -9.9205   21.2016 H   0  0  0  0  0  0  0  0  0  0  0  0
   20.7517  -13.2697   19.5936 H   0  0  0  0  0  0  0  0  0  0  0  0
   20.9931  -12.2274   21.0366 H   0  0  0  0  0  0  0  0  0  0  0  0
   16.5452  -16.8608   23.4488 H   0  0  0  0  0  0  0  0  0  0  0  0
   15.6689  -15.4909   23.5972 H   0  0  0  0  0  0  0  0  0  0  0  0
   17.4468  -14.4362   25.1865 H   0  0  0  0  0  0  0  0  0  0  0  0
   18.0518  -16.1219   25.0482 H   0  0  0  0  0  0  0  0  0  0  0  0
   14.6252   -9.2574   19.8284 H   0  0  0  0  0  0  0  0  0  0  0  0
   14.3492  -10.9832   19.4132 H   0  0  0  0  0  0  0  0  0  0  0  0
   20.1293  -14.0401   22.1996 H   0  0  0  0  0  0  0  0  0  0  0  0
   19.3586  -14.7321   20.7321 H   0  0  0  0  0  0  0  0  0  0  0  0
   20.4629  -16.4441   24.1242 H   0  0  0  0  0  0  0  0  0  0  0  0
   22.7873  -15.5884   24.3543 H   0  0  0  0  0  0  0  0  0  0  0  0
   11.1569  -12.4673   22.5511 H   0  0  0  0  0  0  0  0  0  0  0  0
   23.1881  -13.2623   25.1399 H   0  0  0  0  0  0  0  0  0  0  0  0
   10.7981  -10.5257   24.0645 H   0  0  0  0  0  0  0  0  0  0  0  0
   21.2638  -11.8238   25.7883 H   0  0  0  0  0  0  0  0  0  0  0  0
   18.9509  -12.6929   25.5951 H   0  0  0  0  0  0  0  0  0  0  0  0
   13.9920   -8.4107   22.0943 H   0  0  0  0  0  0  0  0  0  0  0  0
  1  2  1  0  0  0  0
  1 14  1  0  0  0  0
  1  3  1  0  0  0  0
  2  5  1  0  0  0  0
  2  7  1  0  0  0  0
  3  8  1  0  0  0  0
  3  4  2  0  0  0  0
  5  6  2  0  0  0  0
  5  9  1  0  0  0  0
  7 10  1  0  0  0  0
  8 11  1  0  0  0  0
  8 12  1  0  0  0  0
  9 13  1  0  0  0  0
 10 14  1  0  0  0  0
 12 15  1  0  0  0  0
 13 16  1  0  0  0  0
 15 17  2  0  0  0  0
 15 25  1  0  0  0  0
 16 18  2  0  0  0  0
 16 26  1  0  0  0  0
 17 19  1  0  0  0  0
 18 20  1  0  0  0  0
 18 27  1  0  0  0  0
 19 21  2  0  0  0  0
 20 22  2  0  0  0  0
 21 23  1  0  0  0  0
 22 24  1  0  0  0  0
 23 25  2  0  0  0  0
 24 26  2  0  0  0  0
 24 28  1  0  0  0  0
  2 29  1  0  0  0  0
  7 30  1  0  0  0  0
  7 31  1  0  0  0  0
  8 32  1  0  0  0  0
  9 33  1  0  0  0  0
 10 34  1  0  0  0  0
 10 35  1  0  0  0  0
 11 36  1  0  0  0  0
 11 37  1  0  0  0  0
 12 38  1  0  0  0  0
 12 39  1  0  0  0  0
 13 40  1  0  0  0  0
 13 41  1  0  0  0  0
 14 42  1  0  0  0  0
 14 43  1  0  0  0  0
 17 44  1  0  0  0  0
 19 45  1  0  0  0  0
 20 46  1  0  0  0  0
 21 47  1  0  0  0  0
 22 48  1  0  0  0  0
 23 49  1  0  0  0  0
 25 50  1  0  0  0  0
 26 51  1  0  0  0  0
M  END
> <r_user_dG.exp>
-8.91

$$$$
6e
  -OEChem-05162309453D
 Structure written by MMmdl.
 51 53  0     1  0  0  0  0  0999 V2000
   18.2497  -13.2104   21.6962 N   0  0  0  0  0  0  0  0  0  0  0  0
   18.0488  -11.9126   21.0217 C   0  0  2  0  0  0  0  0  0  0  0  0
   17.3792  -13.7553   22.5811 C   0  0  0  0  0  0  0  0  0  0  0  0
   16.3817  -13.1440   22.9691 O   0  0  0  0  0  0  0  0  0  0  0  0
   16.6479  -11.7402   20.3852 C   0  0  0  0  0  0  0  0  0  0  0  0
   16.1896  -12.6294   19.6672 O   0  0  0  0  0  0  0  0  0  0  0  0
   19.1544  -11.8553   19.9573 C   0  0  0  0  0  0  0  0  0  0  0  0
   17.6313  -15.1609   23.1609 C   0  0  2  0  0  0  0  0  0  0  0  0
   15.9835  -10.6080   20.6535 N   0  0  0  0  0  0  0  0  0  0  0  0
   20.2512  -12.7816   20.4429 C   0  0  0  0  0  0  0  0  0  0  0  0
   16.3889  -15.9469   23.0741 N   0  0  0  0  0  0  0  0  0  0  0  0
   18.1164  -15.1072   24.6285 C   0  0  0  0  0  0  0  0  0  0  0  0
   14.6257  -10.2861   20.2180 C   0  0  0  0  0  0  0  0  0  0  0  0
   19.5309  -13.8096   21.3059 C   0  0  0  0  0  0  0  0  0  0  0  0
   19.5409  -14.6106   24.8076 C   0  0  0  0  0  0  0  0  0  0  0  0
   13.5701  -10.3803   21.3113 C   0  0  0  0  0  0  0  0  0  0  0  0
   20.6348  -15.4379   24.4770 C   0  0  0  0  0  0  0  0  0  0  0  0
   12.7537  -11.5266   21.4406 C   0  0  0  0  0  0  0  0  0  0  0  0
   21.9515  -14.9527   24.6066 C   0  0  0  0  0  0  0  0  0  0  0  0
   11.7654  -11.5815   22.4439 C   0  0  0  0  0  0  0  0  0  0  0  0
   22.1796  -13.6411   25.0642 C   0  0  0  0  0  0  0  0  0  0  0  0
   11.5676  -10.4862   23.3077 C   0  0  0  0  0  0  0  0  0  0  0  0
   21.0922  -12.8253   25.4224 C   0  0  0  0  0  0  0  0  0  0  0  0
   12.3755   -9.3399   23.1820 C   0  0  0  0  0  0  0  0  0  0  0  0
   19.7830  -13.3164   25.3030 C   0  0  0  0  0  0  0  0  0  0  0  0
   13.3727   -9.2906   22.1874 C   0  0  0  0  0  0  0  0  0  0  0  0
   12.8930  -12.5678   20.5872 F   0  0  0  0  0  0  0  0  0  0  0  0
   12.1698   -8.0089   24.2632 Cl  0  0  0  0  0  0  0  0  0  0  0  0
   18.2091  -11.0962   21.7413 H   0  0  0  0  0  0  0  0  0  0  0  0
   15.3289  -12.3741   19.3566 H   0  0  0  0  0  0  0  0  0  0  0  0
   18.7677  -12.1973   18.9860 H   0  0  0  0  0  0  0  0  0  0  0  0
   19.5371  -10.8287   19.8588 H   0  0  0  0  0  0  0  0  0  0  0  0
   18.4111  -15.6489   22.5579 H   0  0  0  0  0  0  0  0  0  0  0  0
   20.7517  -13.2697   19.5936 H   0  0  0  0  0  0  0  0  0  0  0  0
   20.9931  -12.2274   21.0366 H   0  0  0  0  0  0  0  0  0  0  0  0
   16.5452  -16.8608   23.4488 H   0  0  0  0  0  0  0  0  0  0  0  0
   15.6689  -15.4909   23.5972 H   0  0  0  0  0  0  0  0  0  0  0  0
   17.4468  -14.4362   25.1865 H   0  0  0  0  0  0  0  0  0  0  0  0
   18.0518  -16.1219   25.0482 H   0  0  0  0  0  0  0  0  0  0  0  0
   14.6252   -9.2574   19.8284 H   0  0  0  0  0  0  0  0  0  0  0  0
   14.3492  -10.9832   19.4132 H   0  0  0  0  0  0  0  0  0  0  0  0
   20.1293  -14.0401   22.1996 H   0  0  0  0  0  0  0  0  0  0  0  0
   19.3586  -14.7321   20.7321 H   0  0  0  0  0  0  0  0  0  0  0  0
   20.4629  -16.4441   24.1242 H   0  0  0  0  0  0  0  0  0  0  0  0
   22.7873  -15.5884   24.3543 H   0  0  0  0  0  0  0  0  0  0  0  0
   11.1569  -12.4673   22.5511 H   0  0  0  0  0  0  0  0  0  0  0  0
   23.1881  -13.2623   25.1399 H   0  0  0  0  0  0  0  0  0  0  0  0
   10.7981  -10.5257   24.0645 H   0  0  0  0  0  0  0  0  0  0  0  0
   21.2638  -11.8238   25.7883 H   0  0  0  0  0  0  0  0  0  0  0  0
   18.9509  -12.6929   25.5951 H   0  0  0  0  0  0  0  0  0  0  0  0
   13.9920   -8.4107   22.0943 H   0  0  0  0  0  0  0  0  0  0  0  0
  1  2  1  0  0  0  0
  1 14  1  0  0  0  0
  1  3  1  0  0  0  0
  2  5  1  0  0  0  0
  2  7  1  0  0  0  0
  3  8  1  0  0  0  0
  3  4  2  0  0  0  0
  5  6  1  0  0  0  0
  5  9  2  0  0  0  0
  7 10  1  0  0  0  0
  8 11  1  0  0  0  0
  8 12  1  0  0  0  0
  9 13  1  0  0  0  0
 10 14  1  0  0  0  0
 12 15  1  0  0  0  0
 13 16  1  0  0  0  0
 15 17  2  0  0  0  0
 15 25  1  0  0  0  0
 16 18  2  0  0  0  0
 16 26  1  0  0  0  0
 17 19  1  0  0  0  0
 18 20  1  0  0  0  0
 18 27  1  0  0  0  0
 19 21  2  0  0  0  0
 20 22  2  0  0  0  0
 21 23  1  0  0  0  0
 22 24  1  0  0  0  0
 23 25  2  0  0  0  0
 24 26  2  0  0  0  0
 24 28  1  0  0  0  0
  2 29  1  0  0  0  0
  6 30  1  0  0  0  0
  7 31  1  0  0  0  0
  7 32  1  0  0  0  0
  8 33  1  0  0  0  0
 10 34  1  0  0  0  0
 10 35  1  0  0  0  0
 11 36  1  0  0  0  0
 11 37  1  0  0  0  0
 12 38  1  0  0  0  0
 12 39  1  0  0  0  0
 13 40  1  0  0  0  0
 13 41  1  0  0  0  0
 14 42  1  0  0  0  0
 14 43  1  0  0  0  0
 17 44  1  0  0  0  0
 19 45  1  0  0  0  0
 20 46  1  0  0  0  0
 21 47  1  0  0  0  0
 22 48  1  0  0  0  0
 23 49  1  0  0  0  0
 25 50  1  0  0  0  0
 26 51  1  0  0  0  0
M  END
> <r_user_dG.exp>
-8.91

$$$$
6e
  -OEChem-05162309453D
 Structure written by MMmdl.
 51 53  0     1  0  0  0  0  0999 V2000
   18.2497  -13.2104   21.6962 N   0  0  0  0  0  0  0  0  0  0  0  0
   18.0488  -11.9126   21.0217 C   0  0  2  0  0  0  0  0  0  0  0  0
   17.3792  -13.7553   22.5811 C   0  0  0  0  0  0  0  0  0  0  0  0
   16.3817  -13.1440   22.9691 O   0  0  0  0  0  0  0  0  0  0  0  0
   16.6479  -11.7402   20.3852 C   0  0  0  0  0  0  0  0  0  0  0  0
   16.1896  -12.6294   19.6672 O   0  0  0  0  0  0  0  0  0  0  0  0
   19.1544  -11.8553   19.9573 C   0  0  0  0  0  0  0  0  0  0  0  0
   17.6313  -15.1609   23.1609 C   0  0  2  0  0  0  0  0  0  0  0  0
   15.9835  -10.6080   20.6535 N   0  0  0  0  0  0  0  0  0  0  0  0
   20.2512  -12.7816   20.4429 C   0  0  0  0  0  0  0  0  0  0  0  0
   16.3889  -15.9469   23.0741 N   0  0  0  0  0  0  0  0  0  0  0  0
   18.1164  -15.1072   24.6285 C   0  0  0  0  0  0  0  0  0  0  0  0
   14.6257  -10.2861   20.2180 C   0  0  0  0  0  0  0  0  0  0  0  0
   19.5309  -13.8096   21.3059 C   0  0  0  0  0  0  0  0  0  0  0  0
   19.5409  -14.6106   24.8076 C   0  0  0  0  0  0  0  0  0  0  0  0
   13.5701  -10.3803   21.3113 C   0  0  0  0  0  0  0  0  0  0  0  0
   20.6348  -15.4379   24.4770 C   0  0  0  0  0  0  0  0  0  0  0  0
   12.7537  -11.5266   21.4406 C   0  0  0  0  0  0  0  0  0  0  0  0
   21.9515  -14.9527   24.6066 C   0  0  0  0  0  0  0  0  0  0  0  0
   11.7654  -11.5815   22.4439 C   0  0  0  0  0  0  0  0  0  0  0  0
   22.1796  -13.6411   25.0642 C   0  0  0  0  0  0  0  0  0  0  0  0
   11.5676  -10.4862   23.3077 C   0  0  0  0  0  0  0  0  0  0  0  0
   21.0922  -12.8253   25.4224 C   0  0  0  0  0  0  0  0  0  0  0  0
   12.3755   -9.3399   23.1820 C   0  0  0  0  0  0  0  0  0  0  0  0
   19.7830  -13.3164   25.3030 C   0  0  0  0  0  0  0  0  0  0  0  0
   13.3727   -9.2906   22.1874 C   0  0  0  0  0  0  0  0  0  0  0  0
   12.8930  -12.5678   20.5872 F   0  0  0  0  0  0  0  0  0  0  0  0
   12.1698   -8.0089   24.2632 Cl  0  0  0  0  0  0  0  0  0  0  0  0
   18.2091  -11.0962   21.7413 H   0  0  0  0  0  0  0  0  0  0  0  0
   16.8003  -14.1926   21.7543 H   0  0  0  0  0  0  0  0  0  0  0  0
   15.8970  -13.6844   23.5819 H   0  0  0  0  0  0  0  0  0  0  0  0
   18.7677  -12.1973   18.9860 H   0  0  0  0  0  0  0  0  0  0  0  0
   19.5371  -10.8287   19.8588 H   0  0  0  0  0  0  0  0  0  0  0  0
   16.4599   -9.9205   21.2016 H   0  0  0  0  0  0  0  0  0  0  0  0
   20.7517  -13.2697   19.5936 H   0  0  0  0  0  0  0  0  0  0  0  0
   20.9931  -12.2274   21.0366 H   0  0  0  0  0  0  0  0  0  0  0  0
   16.1001  -16.2910   23.9675 H   0  0  0  0  0  0  0  0  0  0  0  0
   17.4468  -14.4362   25.1865 H   0  0  0  0  0  0  0  0  0  0  0  0
   18.0518  -16.1219   25.0482 H   0  0  0  0  0  0  0  0  0  0  0  0
   14.6252   -9.2574   19.8284 H   0  0  0  0  0  0  0  0  0  0  0  0
   14.3492  -10.9832   19.4132 H   0  0  0  0  0  0  0  0  0  0  0  0
   20.1293  -14.0401   22.1996 H   0  0  0  0  0  0  0  0  0  0  0  0
   19.3586  -14.7321   20.7321 H   0  0  0  0  0  0  0  0  0  0  0  0
   20.4629  -16.4441   24.1242 H   0  0  0  0  0  0  0  0  0  0  0  0
   22.7873  -15.5884   24.3543 H   0  0  0  0  0  0  0  0  0  0  0  0
   11.1569  -12.4673   22.5511 H   0  0  0  0  0  0  0  0  0  0  0  0
   23.1881  -13.2623   25.1399 H   0  0  0  0  0  0  0  0  0  0  0  0
   10.7981  -10.5257   24.0645 H   0  0  0  0  0  0  0  0  0  0  0  0
   21.2638  -11.8238   25.7883 H   0  0  0  0  0  0  0  0  0  0  0  0
   18.9509  -12.6929   25.5951 H   0  0  0  0  0  0  0  0  0  0  0  0
   13.9920   -8.4107   22.0943 H   0  0  0  0  0  0  0  0  0  0  0  0
  1  2  1  0  0  0  0
  1 14  1  0  0  0  0
  1  3  1  0  0  0  0
  2  5  1  0  0  0  0
  2  7  1  0  0  0  0
  3  8  1  0  0  0  0
  3  4  1  0  0  0  0
  5  6  2  0  0  0  0
  5  9  1  0  0  0  0
  7 10  1  0  0  0  0
  8 11  2  0  0  0  0
  8 12  1  0  0  0  0
  9 13  1  0  0  0  0
 10 14  1  0  0  0  0
 12 15  1  0  0  0  0
 13 16  1  0  0  0  0
 15 17  2  0  0  0  0
 15 25  1  0  0  0  0
 16 18  2  0  0  0  0
 16 26  1  0  0  0  0
 17 19  1  0  0  0  0
 18 20  1  0  0  0  0
 18 27  1  0  0  0  0
 19 21  2  0  0  0  0
 20 22  2  0  0  0  0
 21 23  1  0  0  0  0
 22 24  1  0  0  0  0
 23 25  2  0  0  0  0
 24 26  2  0  0  0  0
 24 28  1  0  0  0  0
  2 29  1  0  0  0  0
  3 30  1  0  0  0  0
  4 31  1  0  0  0  0
  7 32  1  0  0  0  0
  7 33  1  0  0  0  0
  9 34  1  0  0  0  0
 10 35  1  0  0  0  0
 10 36  1  0  0  0  0
 11 37  1  0  0  0  0
 12 38  1  0  0  0  0
 12 39  1  0  0  0  0
 13 40  1  0  0  0  0
 13 41  1  0  0  0  0
 14 42  1  0  0  0  0
 14 43  1  0  0  0  0
 17 44  1  0  0  0  0
 19 45  1  0  0  0  0
 20 46  1  0  0  0  0
 21 47  1  0  0  0  0
 22 48  1  0  0  0  0
 23 49  1  0  0  0  0
 25 50  1  0  0  0  0
 26 51  1  0  0  0  0
M  END
> <r_user_dG.exp>
-8.91

$$$$
6e
  -OEChem-05162309453D
 Structure written by MMmdl.
 51 53  0     1  0  0  0  0  0999 V2000
   18.2497  -13.2104   21.6962 N   0  0  0  0  0  0  0  0  0  0  0  0
   18.0488  -11.9126   21.0217 C   0  0  2  0  0  0  0  0  0  0  0  0
   17.3792  -13.7553   22.5811 C   0  0  0  0  0  0  0  0  0  0  0  0
   16.3817  -13.1440   22.9691 O   0  0  0  0  0  0  0  0  0  0  0  0
   16.6479  -11.7402   20.3852 C   0  0  0  0  0  0  0  0  0  0  0  0
   16.1896  -12.6294   19.6672 O   0  0  0  0  0  0  0  0  0  0  0  0
   19.1544  -11.8553   19.9573 C   0  0  0  0  0  0  0  0  0  0  0  0
   17.6313  -15.1609   23.1609 C   0  0  2  0  0  0  0  0  0  0  0  0
   15.9835  -10.6080   20.6535 N   0  0  0  0  0  0  0  0  0  0  0  0
   20.2512  -12.7816   20.4429 C   0  0  0  0  0  0  0  0  0  0  0  0
   16.3889  -15.9469   23.0741 N   0  0  0  0  0  0  0  0  0  0  0  0
   18.1164  -15.1072   24.6285 C   0  0  0  0  0  0  0  0  0  0  0  0
   14.6257  -10.2861   20.2180 C   0  0  0  0  0  0  0  0  0  0  0  0
   19.5309  -13.8096   21.3059 C   0  0  0  0  0  0  0  0  0  0  0  0
   19.5409  -14.6106   24.8076 C   0  0  0  0  0  0  0  0  0  0  0  0
   13.5701  -10.3803   21.3113 C   0  0  0  0  0  0  0  0  0  0  0  0
   20.6348  -15.4379   24.4770 C   0  0  0  0  0  0  0  0  0  0  0  0
   12.7537  -11.5266   21.4406 C   0  0  0  0  0  0  0  0  0  0  0  0
   21.9515  -14.9527   24.6066 C   0  0  0  0  0  0  0  0  0  0  0  0
   11.7654  -11.5815   22.4439 C   0  0  0  0  0  0  0  0  0  0  0  0
   22.1796  -13.6411   25.0642 C   0  0  0  0  0  0  0  0  0  0  0  0
   11.5676  -10.4862   23.3077 C   0  0  0  0  0  0  0  0  0  0  0  0
   21.0922  -12.8253   25.4224 C   0  0  0  0  0  0  0  0  0  0  0  0
   12.3755   -9.3399   23.1820 C   0  0  0  0  0  0  0  0  0  0  0  0
   19.7830  -13.3164   25.3030 C   0  0  0  0  0  0  0  0  0  0  0  0
   13.3727   -9.2906   22.1874 C   0  0  0  0  0  0  0  0  0  0  0  0
   12.8930  -12.5678   20.5872 F   0  0  0  0  0  0  0  0  0  0  0  0
   12.1698   -8.0089   24.2632 Cl  0  0  0  0  0  0  0  0  0  0  0  0
   18.2091  -11.0962   21.7413 H   0  0  0  0  0  0  0  0  0  0  0  0
   16.8003  -14.1926   21.7543 H   0  0  0  0  0  0  0  0  0  0  0  0
   15.8970  -13.6844   23.5819 H   0  0  0  0  0  0  0  0  0  0  0  0
   15.3289  -12.3741   19.3566 H   0  0  0  0  0  0  0  0  0  0  0  0
   18.7677  -12.1973   18.9860 H   0  0  0  0  0  0  0  0  0  0  0  0
   19.5371  -10.8287   19.8588 H   0  0  0  0  0  0  0  0  0  0  0  0
   20.7517  -13.2697   19.5936 H   0  0  0  0  0  0  0  0  0  0  0  0
   20.9931  -12.2274   21.0366 H   0  0  0  0  0  0  0  0  0  0  0  0
   16.1001  -16.2910   23.9675 H   0  0  0  0  0  0  0  0  0  0  0  0
   17.4468  -14.4362   25.1865 H   0  0  0  0  0  0  0  0  0  0  0  0
   18.0518  -16.1219   25.0482 H   0  0  0  0  0  0  0  0  0  0  0  0
   14.6252   -9.2574   19.8284 H   0  0  0  0  0  0  0  0  0  0  0  0
   14.3492  -10.9832   19.4132 H   0  0  0  0  0  0  0  0  0  0  0  0
   20.1293  -14.0401   22.1996 H   0  0  0  0  0  0  0  0  0  0  0  0
   19.3586  -14.7321   20.7321 H   0  0  0  0  0  0  0  0  0  0  0  0
   20.4629  -16.4441   24.1242 H   0  0  0  0  0  0  0  0  0  0  0  0
   22.7873  -15.5884   24.3543 H   0  0  0  0  0  0  0  0  0  0  0  0
   11.1569  -12.4673   22.5511 H   0  0  0  0  0  0  0  0  0  0  0  0
   23.1881  -13.2623   25.1399 H   0  0  0  0  0  0  0  0  0  0  0  0
   10.7981  -10.5257   24.0645 H   0  0  0  0  0  0  0  0  0  0  0  0
   21.2638  -11.8238   25.7883 H   0  0  0  0  0  0  0  0  0  0  0  0
   18.9509  -12.6929   25.5951 H   0  0  0  0  0  0  0  0  0  0  0  0
   13.9920   -8.4107   22.0943 H   0  0  0  0  0  0  0  0  0  0  0  0
  1  2  1  0  0  0  0
  1 14  1  0  0  0  0
  1  3  1  0  0  0  0
  2  5  1  0  0  0  0
  2  7  1  0  0  0  0
  3  8  1  0  0  0  0
  3  4  1  0  0  0  0
  5  6  1  0  0  0  0
  5  9  2  0  0  0  0
  7 10  1  0  0  0  0
  8 11  2  0  0  0  0
  8 12  1  0  0  0  0
  9 13  1  0  0  0  0
 10 14  1  0  0  0  0
 12 15  1  0  0  0  0
 13 16  1  0  0  0  0
 15 17  2  0  0  0  0
 15 25  1  0  0  0  0
 16 18  2  0  0  0  0
 16 26  1  0  0  0  0
 17 19  1  0  0  0  0
 18 20  1  0  0  0  0
 18 27  1  0  0  0  0
 19 21  2  0  0  0  0
 20 22  2  0  0  0  0
 21 23  1  0  0  0  0
 22 24  1  0  0  0  0
 23 25  2  0  0  0  0
 24 26  2  0  0  0  0
 24 28  1  0  0  0  0
  2 29  1  0  0  0  0
  3 30  1  0  0  0  0
  4 31  1  0  0  0  0
  6 32  1  0  0  0  0
  7 33  1  0  0  0  0
  7 34  1  0  0  0  0
 10 35  1  0  0  0  0
 10 36  1  0  0  0  0
 11 37  1  0  0  0  0
 12 38  1  0  0  0  0
 12 39  1  0  0  0  0
 13 40  1  0  0  0  0
 13 41  1  0  0  0  0
 14 42  1  0  0  0  0
 14 43  1  0  0  0  0
 17 44  1  0  0  0  0
 19 45  1  0  0  0  0
 20 46  1  0  0  0  0
 21 47  1  0  0  0  0
 22 48  1  0  0  0  0
 23 49  1  0  0  0  0
 25 50  1  0  0  0  0
 26 51  1  0  0  0  0
M  END
> <r_user_dG.exp>
-8.91

$$$$
6e
  -OEChem-05162309453D
 Structure written by MMmdl.
 51 53  0     1  0  0  0  0  0999 V2000
   18.2497  -13.2104   21.6962 N   0  0  0  0  0  0  0  0  0  0  0  0
   18.0488  -11.9126   21.0217 C   0  0  2  0  0  0  0  0  0  0  0  0
   17.3792  -13.7553   22.5811 C   0  0  0  0  0  0  0  0  0  0  0  0
   16.3817  -13.1440   22.9691 O   0  0  0  0  0  0  0  0  0  0  0  0
   16.6479  -11.7402   20.3852 C   0  0  0  0  0  0  0  0  0  0  0  0
   16.1896  -12.6294   19.6672 O   0  0  0  0  0  0  0  0  0  0  0  0
   19.1544  -11.8553   19.9573 C   0  0  0  0  0  0  0  0  0  0  0  0
   17.6313  -15.1609   23.1609 C   0  0  2  0  0  0  0  0  0  0  0  0
   15.9835  -10.6080   20.6535 N   0  0  0  0  0  0  0  0  0  0  0  0
   20.2512  -12.7816   20.4429 C   0  0  0  0  0  0  0  0  0  0  0  0
   16.3889  -15.9469   23.0741 N   0  0  0  0  0  0  0  0  0  0  0  0
   18.1164  -15.1072   24.6285 C   0  0  0  0  0  0  0  0  0  0  0  0
   14.6257  -10.2861   20.2180 C   0  0  0  0  0  0  0  0  0  0  0  0
   19.5309  -13.8096   21.3059 C   0  0  0  0  0  0  0  0  0  0  0  0
   19.5409  -14.6106   24.8076 C   0  0  0  0  0  0  0  0  0  0  0  0
   13.5701  -10.3803   21.3113 C   0  0  0  0  0  0  0  0  0  0  0  0
   20.6348  -15.4379   24.4770 C   0  0  0  0  0  0  0  0  0  0  0  0
   12.7537  -11.5266   21.4406 C   0  0  0  0  0  0  0  0  0  0  0  0
   21.9515  -14.9527   24.6066 C   0  0  0  0  0  0  0  0  0  0  0  0
   11.7654  -11.5815   22.4439 C   0  0  0  0  0  0  0  0  0  0  0  0
   22.1796  -13.6411   25.0642 C   0  0  0  0  0  0  0  0  0  0  0  0
   11.5676  -10.4862   23.3077 C   0  0  0  0  0  0  0  0  0  0  0  0
   21.0922  -12.8253   25.4224 C   0  0  0  0  0  0  0  0  0  0  0  0
   12.3755   -9.3399   23.1820 C   0  0  0  0  0  0  0  0  0  0  0  0
   19.7830  -13.3164   25.3030 C   0  0  0  0  0  0  0  0  0  0  0  0
   13.3727   -9.2906   22.1874 C   0  0  0  0  0  0  0  0  0  0  0  0
   12.8930  -12.5678   20.5872 F   0  0  0  0  0  0  0  0  0  0  0  0
   12.1698   -8.0089   24.2632 Cl  0  0  0  0  0  0  0  0  0  0  0  0
   18.2091  -11.0962   21.7413 H   0  0  0  0  0  0  0  0  0  0  0  0
   15.8970  -13.6844   23.5819 H   0  0  0  0  0  0  0  0  0  0  0  0
   18.7677  -12.1973   18.9860 H   0  0  0  0  0  0  0  0  0  0  0  0
   19.5371  -10.8287   19.8588 H   0  0  0  0  0  0  0  0  0  0  0  0
   16.4599   -9.9205   21.2016 H   0  0  0  0  0  0  0  0  0  0  0  0
   20.7517  -13.2697   19.5936 H   0  0  0  0  0  0  0  0  0  0  0  0
   20.9931  -12.2274   21.0366 H   0  0  0  0  0  0  0  0  0  0  0  0
   16.5452  -16.8608   23.4488 H   0  0  0  0  0  0  0  0  0  0  0  0
   15.6689  -15.4909   23.5972 H   0  0  0  0  0  0  0  0  0  0  0  0
   17.4468  -14.4362   25.1865 H   0  0  0  0  0  0  0  0  0  0  0  0
   18.0518  -16.1219   25.0482 H   0  0  0  0  0  0  0  0  0  0  0  0
   14.6252   -9.2574   19.8284 H   0  0  0  0  0  0  0  0  0  0  0  0
   14.3492  -10.9832   19.4132 H   0  0  0  0  0  0  0  0  0  0  0  0
   20.1293  -14.0401   22.1996 H   0  0  0  0  0  0  0  0  0  0  0  0
   19.3586  -14.7321   20.7321 H   0  0  0  0  0  0  0  0  0  0  0  0
   20.4629  -16.4441   24.1242 H   0  0  0  0  0  0  0  0  0  0  0  0
   22.7873  -15.5884   24.3543 H   0  0  0  0  0  0  0  0  0  0  0  0
   11.1569  -12.4673   22.5511 H   0  0  0  0  0  0  0  0  0  0  0  0
   23.1881  -13.2623   25.1399 H   0  0  0  0  0  0  0  0  0  0  0  0
   10.7981  -10.5257   24.0645 H   0  0  0  0  0  0  0  0  0  0  0  0
   21.2638  -11.8238   25.7883 H   0  0  0  0  0  0  0  0  0  0  0  0
   18.9509  -12.6929   25.5951 H   0  0  0  0  0  0  0  0  0  0  0  0
   13.9920   -8.4107   22.0943 H   0  0  0  0  0  0  0  0  0  0  0  0
  1  2  1  0  0  0  0
  1 14  1  0  0  0  0
  1  3  1  0  0  0  0
  2  5  1  0  0  0  0
  2  7  1  0  0  0  0
  3  8  2  0  0  0  0
  3  4  1  0  0  0  0
  5  6  2  0  0  0  0
  5  9  1  0  0  0  0
  7 10  1  0  0  0  0
  8 11  1  0  0  0  0
  8 12  1  0  0  0  0
  9 13  1  0  0  0  0
 10 14  1  0  0  0  0
 12 15  1  0  0  0  0
 13 16  1  0  0  0  0
 15 17  2  0  0  0  0
 15 25  1  0  0  0  0
 16 18  2  0  0  0  0
 16 26  1  0  0  0  0
 17 19  1  0  0  0  0
 18 20  1  0  0  0  0
 18 27  1  0  0  0  0
 19 21  2  0  0  0  0
 20 22  2  0  0  0  0
 21 23  1  0  0  0  0
 22 24  1  0  0  0  0
 23 25  2  0  0  0  0
 24 26  2  0  0  0  0
 24 28  1  0  0  0  0
  2 29  1  0  0  0  0
  4 30  1  0  0  0  0
  7 31  1  0  0  0  0
  7 32  1  0  0  0  0
  9 33  1  0  0  0  0
 10 34  1  0  0  0  0
 10 35  1  0  0  0  0
 11 36  1  0  0  0  0
 11 37  1  0  0  0  0
 12 38  1  0  0  0  0
 12 39  1  0  0  0  0
 13 40  1  0  0  0  0
 13 41  1  0  0  0  0
 14 42  1  0  0  0  0
 14 43  1  0  0  0  0
 17 44  1  0  0  0  0
 19 45  1  0  0  0  0
 20 46  1  0  0  0  0
 21 47  1  0  0  0  0
 22 48  1  0  0  0  0
 23 49  1  0  0  0  0
 25 50  1  0  0  0  0
 26 51  1  0  0  0  0
M  END
> <r_user_dG.exp>
-8.91

$$$$
6e
  -OEChem-05162309453D
 Structure written by MMmdl.
 51 53  0     1  0  0  0  0  0999 V2000
   18.2497  -13.2104   21.6962 N   0  0  0  0  0  0  0  0  0  0  0  0
   18.0488  -11.9126   21.0217 C   0  0  2  0  0  0  0  0  0  0  0  0
   17.3792  -13.7553   22.5811 C   0  0  0  0  0  0  0  0  0  0  0  0
   16.3817  -13.1440   22.9691 O   0  0  0  0  0  0  0  0  0  0  0  0
   16.6479  -11.7402   20.3852 C   0  0  0  0  0  0  0  0  0  0  0  0
   16.1896  -12.6294   19.6672 O   0  0  0  0  0  0  0  0  0  0  0  0
   19.1544  -11.8553   19.9573 C   0  0  0  0  0  0  0  0  0  0  0  0
   17.6313  -15.1609   23.1609 C   0  0  2  0  0  0  0  0  0  0  0  0
   15.9835  -10.6080   20.6535 N   0  0  0  0  0  0  0  0  0  0  0  0
   20.2512  -12.7816   20.4429 C   0  0  0  0  0  0  0  0  0  0  0  0
   16.3889  -15.9469   23.0741 N   0  0  0  0  0  0  0  0  0  0  0  0
   18.1164  -15.1072   24.6285 C   0  0  0  0  0  0  0  0  0  0  0  0
   14.6257  -10.2861   20.2180 C   0  0  0  0  0  0  0  0  0  0  0  0
   19.5309  -13.8096   21.3059 C   0  0  0  0  0  0  0  0  0  0  0  0
   19.5409  -14.6106   24.8076 C   0  0  0  0  0  0  0  0  0  0  0  0
   13.5701  -10.3803   21.3113 C   0  0  0  0  0  0  0  0  0  0  0  0
   20.6348  -15.4379   24.4770 C   0  0  0  0  0  0  0  0  0  0  0  0
   12.7537  -11.5266   21.4406 C   0  0  0  0  0  0  0  0  0  0  0  0
   21.9515  -14.9527   24.6066 C   0  0  0  0  0  0  0  0  0  0  0  0
   11.7654  -11.5815   22.4439 C   0  0  0  0  0  0  0  0  0  0  0  0
   22.1796  -13.6411   25.0642 C   0  0  0  0  0  0  0  0  0  0  0  0
   11.5676  -10.4862   23.3077 C   0  0  0  0  0  0  0  0  0  0  0  0
   21.0922  -12.8253   25.4224 C   0  0  0  0  0  0  0  0  0  0  0  0
   12.3755   -9.3399   23.1820 C   0  0  0  0  0  0  0  0  0  0  0  0
   19.7830  -13.3164   25.3030 C   0  0  0  0  0  0  0  0  0  0  0  0
   13.3727   -9.2906   22.1874 C   0  0  0  0  0  0  0  0  0  0  0  0
   12.8930  -12.5678   20.5872 F   0  0  0  0  0  0  0  0  0  0  0  0
   12.1698   -8.0089   24.2632 Cl  0  0  0  0  0  0  0  0  0  0  0  0
   18.2091  -11.0962   21.7413 H   0  0  0  0  0  0  0  0  0  0  0  0
   15.8970  -13.6844   23.5819 H   0  0  0  0  0  0  0  0  0  0  0  0
   15.3289  -12.3741   19.3566 H   0  0  0  0  0  0  0  0  0  0  0  0
   18.7677  -12.1973   18.9860 H   0  0  0  0  0  0  0  0  0  0  0  0
   19.5371  -10.8287   19.8588 H   0  0  0  0  0  0  0  0  0  0  0  0
   20.7517  -13.2697   19.5936 H   0  0  0  0  0  0  0  0  0  0  0  0
   20.9931  -12.2274   21.0366 H   0  0  0  0  0  0  0  0  0  0  0  0
   16.5452  -16.8608   23.4488 H   0  0  0  0  0  0  0  0  0  0  0  0
   15.6689  -15.4909   23.5972 H   0  0  0  0  0  0  0  0  0  0  0  0
   17.4468  -14.4362   25.1865 H   0  0  0  0  0  0  0  0  0  0  0  0
   18.0518  -16.1219   25.0482 H   0  0  0  0  0  0  0  0  0  0  0  0
   14.6252   -9.2574   19.8284 H   0  0  0  0  0  0  0  0  0  0  0  0
   14.3492  -10.9832   19.4132 H   0  0  0  0  0  0  0  0  0  0  0  0
   20.1293  -14.0401   22.1996 H   0  0  0  0  0  0  0  0  0  0  0  0
   19.3586  -14.7321   20.7321 H   0  0  0  0  0  0  0  0  0  0  0  0
   20.4629  -16.4441   24.1242 H   0  0  0  0  0  0  0  0  0  0  0  0
   22.7873  -15.5884   24.3543 H   0  0  0  0  0  0  0  0  0  0  0  0
   11.1569  -12.4673   22.5511 H   0  0  0  0  0  0  0  0  0  0  0  0
   23.1881  -13.2623   25.1399 H   0  0  0  0  0  0  0  0  0  0  0  0
   10.7981  -10.5257   24.0645 H   0  0  0  0  0  0  0  0  0  0  0  0
   21.2638  -11.8238   25.7883 H   0  0  0  0  0  0  0  0  0  0  0  0
   18.9509  -12.6929   25.5951 H   0  0  0  0  0  0  0  0  0  0  0  0
   13.9920   -8.4107   22.0943 H   0  0  0  0  0  0  0  0  0  0  0  0
  1  2  1  0  0  0  0
  1 14  1  0  0  0  0
  1  3  1  0  0  0  0
  2  5  1  0  0  0  0
  2  7  1  0  0  0  0
  3  8  2  0  0  0  0
  3  4  1  0  0  0  0
  5  6  1  0  0  0  0
  5  9  2  0  0  0  0
  7 10  1  0  0  0  0
  8 11  1  0  0  0  0
  8 12  1  0  0  0  0
  9 13  1  0  0  0  0
 10 14  1  0  0  0  0
 12 15  1  0  0  0  0
 13 16  1  0  0  0  0
 15 17  2  0  0  0  0
 15 25  1  0  0  0  0
 16 18  2  0  0  0  0
 16 26  1  0  0  0  0
 17 19  1  0  0  0  0
 18 20  1  0  0  0  0
 18 27  1  0  0  0  0
 19 21  2  0  0  0  0
 20 22  2  0  0  0  0
 21 23  1  0  0  0  0
 22 24  1  0  0  0  0
 23 25  2  0  0  0  0
 24 26  2  0  0  0  0
 24 28  1  0  0  0  0
  2 29  1  0  0  0  0
  4 30  1  0  0  0  0
  6 31  1  0  0  0  0
  7 32  1  0  0  0  0
  7 33  1  0  0  0  0
 10 34  1  0  0  0  0
 10 35  1  0  0  0  0
 11 36  1  0  0  0  0
 11 37  1  0  0  0  0
 12 38  1  0  0  0  0
 12 39  1  0  0  0  0
 13 40  1  0  0  0  0
 13 41  1  0  0  0  0
 14 42  1  0  0  0  0
 14 43  1  0  0  0  0
 17 44  1  0  0  0  0
 19 45  1  0  0  0  0
 20 46  1  0  0  0  0
 21 47  1  0  0  0  0
 22 48  1  0  0  0  0
 23 49  1  0  0  0  0
 25 50  1  0  0  0  0
 26 51  1  0  0  0  0
M  END
> <r_user_dG.exp>
-8.91

$$$$
