1d
  -OEChem-05162309453D
 Structure written by MMmdl.
 51 53  0     1  0  0  0  0  0999 V2000
   18.2724  -13.2441   21.7072 N   0  0  0  0  0  0  0  0  0  0  0  0
   18.0753  -11.9483   21.0285 C   0  0  2  0  0  0  0  0  0  0  0  0
   17.4016  -13.7827   22.5957 C   0  0  0  0  0  0  0  0  0  0  0  0
   16.4030  -13.1700   22.9772 O   0  0  0  0  0  0  0  0  0  0  0  0
   16.6731  -11.7594   20.4013 C   0  0  0  0  0  0  0  0  0  0  0  0
   16.1781  -12.6531   19.7125 O   0  0  0  0  0  0  0  0  0  0  0  0
   19.1739  -11.8989   19.9568 C   0  0  0  0  0  0  0  0  0  0  0  0
   17.6534  -15.1828   23.1886 C   0  0  2  0  0  0  0  0  0  0  0  0
   16.0509  -10.6004   20.6443 N   0  0  0  0  0  0  0  0  0  0  0  0
   20.2726  -12.8189   20.4503 C   0  0  0  0  0  0  0  0  0  0  0  0
   16.4103  -15.9689   23.1123 N   0  0  0  0  0  0  0  0  0  0  0  0
   18.1391  -15.1142   24.6551 C   0  0  0  0  0  0  0  0  0  0  0  0
   14.7145  -10.2250   20.2026 C   0  0  0  0  0  0  0  0  0  0  0  0
   19.5531  -13.8450   21.3178 C   0  0  0  0  0  0  0  0  0  0  0  0
   19.5631  -14.6147   24.8265 C   0  0  0  0  0  0  0  0  0  0  0  0
   13.6469  -10.3699   21.2731 C   0  0  0  0  0  0  0  0  0  0  0  0
   20.6572  -15.4491   24.5148 C   0  0  0  0  0  0  0  0  0  0  0  0
   12.9112  -11.5669   21.3982 C   0  0  0  0  0  0  0  0  0  0  0  0
   21.9737  -14.9613   24.6353 C   0  0  0  0  0  0  0  0  0  0  0  0
   11.8983  -11.6758   22.3733 C   0  0  0  0  0  0  0  0  0  0  0  0
   22.2010  -13.6398   25.0643 C   0  0  0  0  0  0  0  0  0  0  0  0
   11.6219  -10.5921   23.2310 C   0  0  0  0  0  0  0  0  0  0  0  0
   21.1131  -12.8168   25.4045 C   0  0  0  0  0  0  0  0  0  0  0  0
   12.3743   -9.4058   23.1282 C   0  0  0  0  0  0  0  0  0  0  0  0
   19.8041  -13.3100   25.2945 C   0  0  0  0  0  0  0  0  0  0  0  0
   13.3767   -9.2950   22.1455 C   0  0  0  0  0  0  0  0  0  0  0  0
   12.0627   -7.8307   24.4709 I   0  0  0  0  0  0  0  0  0  0  0  0
   18.2482  -11.1318   21.7450 H   0  0  0  0  0  0  0  0  0  0  0  0
   18.7833  -12.2521   18.9911 H   0  0  0  0  0  0  0  0  0  0  0  0
   19.5545  -10.8729   19.8452 H   0  0  0  0  0  0  0  0  0  0  0  0
   18.4323  -15.6775   22.5898 H   0  0  0  0  0  0  0  0  0  0  0  0
   16.5534   -9.9241   21.1830 H   0  0  0  0  0  0  0  0  0  0  0  0
   20.7768  -13.3101   19.6050 H   0  0  0  0  0  0  0  0  0  0  0  0
   21.0112  -12.2590   21.0427 H   0  0  0  0  0  0  0  0  0  0  0  0
   16.5669  -16.8791   23.4957 H   0  0  0  0  0  0  0  0  0  0  0  0
   15.6917  -15.5074   23.6325 H   0  0  0  0  0  0  0  0  0  0  0  0
   17.4695  -14.4382   25.2071 H   0  0  0  0  0  0  0  0  0  0  0  0
   18.0758  -16.1247   25.0852 H   0  0  0  0  0  0  0  0  0  0  0  0
   14.7396   -9.1740   19.8791 H   0  0  0  0  0  0  0  0  0  0  0  0
   14.4393  -10.8644   19.3508 H   0  0  0  0  0  0  0  0  0  0  0  0
   20.1524  -14.0726   22.2117 H   0  0  0  0  0  0  0  0  0  0  0  0
   19.3802  -14.7694   20.7471 H   0  0  0  0  0  0  0  0  0  0  0  0
   20.4856  -16.4626   24.1835 H   0  0  0  0  0  0  0  0  0  0  0  0
   13.1240  -12.4012   20.7462 H   0  0  0  0  0  0  0  0  0  0  0  0
   22.8099  -15.6024   24.3981 H   0  0  0  0  0  0  0  0  0  0  0  0
   11.3331  -12.5917   22.4631 H   0  0  0  0  0  0  0  0  0  0  0  0
   23.2093  -13.2589   25.1319 H   0  0  0  0  0  0  0  0  0  0  0  0
   10.8344  -10.6712   23.9659 H   0  0  0  0  0  0  0  0  0  0  0  0
   21.2844  -11.8078   25.7495 H   0  0  0  0  0  0  0  0  0  0  0  0
   18.9716  -12.6806   25.5724 H   0  0  0  0  0  0  0  0  0  0  0  0
   13.9432   -8.3796   22.0591 H   0  0  0  0  0  0  0  0  0  0  0  0
  1  2  1  0  0  0  0
  1 14  1  0  0  0  0
  1  3  1  0  0  0  0
  2  5  1  0  0  0  0
  2  7  1  0  0  0  0
  3  8  1  0  0  0  0
  3  4  2  0  0  0  0
  5  6  2  0  0  0  0
  5  9  1  0  0  0  0
  7 10  1  0  0  0  0
  8 11  1  0  0  0  0
  8 12  1  0  0  0  0
  9 13  1  0  0  0  0
 10 14  1  0  0  0  0
 12 15  1  0  0  0  0
 13 16  1  0  0  0  0
 15 17  2  0  0  0  0
 15 25  1  0  0  0  0
 16 18  2  0  0  0  0
 16 26  1  0  0  0  0
 17 19  1  0  0  0  0
 18 20  1  0  0  0  0
 19 21  2  0  0  0  0
 20 22  2  0  0  0  0
 21 23  1  0  0  0  0
 22 24  1  0  0  0  0
 23 25  2  0  0  0  0
 24 26  2  0  0  0  0
 24 27  1  0  0  0  0
  2 28  1  0  0  0  0
  7 29  1  0  0  0  0
  7 30  1  0  0  0  0
  8 31  1  0  0  0  0
  9 32  1  0  0  0  0
 10 33  1  0  0  0  0
 10 34  1  0  0  0  0
 11 35  1  0  0  0  0
 11 36  1  0  0  0  0
 12 37  1  0  0  0  0
 12 38  1  0  0  0  0
 13 39  1  0  0  0  0
 13 40  1  0  0  0  0
 14 41  1  0  0  0  0
 14 42  1  0  0  0  0
 17 43  1  0  0  0  0
 18 44  1  0  0  0  0
 19 45  1  0  0  0  0
 20 46  1  0  0  0  0
 21 47  1  0  0  0  0
 22 48  1  0  0  0  0
 23 49  1  0  0  0  0
 25 50  1  0  0  0  0
 26 51  1  0  0  0  0
M  END
> <r_user_dG.exp>
-8.25

$$$$
1d
  -OEChem-05162309453D
 Structure written by MMmdl.
 51 53  0     1  0  0  0  0  0999 V2000
   18.2724  -13.2441   21.7072 N   0  0  0  0  0  0  0  0  0  0  0  0
   18.0753  -11.9483   21.0285 C   0  0  2  0  0  0  0  0  0  0  0  0
   17.4016  -13.7827   22.5957 C   0  0  0  0  0  0  0  0  0  0  0  0
   16.4030  -13.1700   22.9772 O   0  0  0  0  0  0  0  0  0  0  0  0
   16.6731  -11.7594   20.4013 C   0  0  0  0  0  0  0  0  0  0  0  0
   16.1781  -12.6531   19.7125 O   0  0  0  0  0  0  0  0  0  0  0  0
   19.1739  -11.8989   19.9568 C   0  0  0  0  0  0  0  0  0  0  0  0
   17.6534  -15.1828   23.1886 C   0  0  2  0  0  0  0  0  0  0  0  0
   16.0509  -10.6004   20.6443 N   0  0  0  0  0  0  0  0  0  0  0  0
   20.2726  -12.8189   20.4503 C   0  0  0  0  0  0  0  0  0  0  0  0
   16.4103  -15.9689   23.1123 N   0  0  0  0  0  0  0  0  0  0  0  0
   18.1391  -15.1142   24.6551 C   0  0  0  0  0  0  0  0  0  0  0  0
   14.7145  -10.2250   20.2026 C   0  0  0  0  0  0  0  0  0  0  0  0
   19.5531  -13.8450   21.3178 C   0  0  0  0  0  0  0  0  0  0  0  0
   19.5631  -14.6147   24.8265 C   0  0  0  0  0  0  0  0  0  0  0  0
   13.6469  -10.3699   21.2731 C   0  0  0  0  0  0  0  0  0  0  0  0
   20.6572  -15.4491   24.5148 C   0  0  0  0  0  0  0  0  0  0  0  0
   12.9112  -11.5669   21.3982 C   0  0  0  0  0  0  0  0  0  0  0  0
   21.9737  -14.9613   24.6353 C   0  0  0  0  0  0  0  0  0  0  0  0
   11.8983  -11.6758   22.3733 C   0  0  0  0  0  0  0  0  0  0  0  0
   22.2010  -13.6398   25.0643 C   0  0  0  0  0  0  0  0  0  0  0  0
   11.6219  -10.5921   23.2310 C   0  0  0  0  0  0  0  0  0  0  0  0
   21.1131  -12.8168   25.4045 C   0  0  0  0  0  0  0  0  0  0  0  0
   12.3743   -9.4058   23.1282 C   0  0  0  0  0  0  0  0  0  0  0  0
   19.8041  -13.3100   25.2945 C   0  0  0  0  0  0  0  0  0  0  0  0
   13.3767   -9.2950   22.1455 C   0  0  0  0  0  0  0  0  0  0  0  0
   12.0627   -7.8307   24.4709 I   0  0  0  0  0  0  0  0  0  0  0  0
   18.2482  -11.1318   21.7450 H   0  0  0  0  0  0  0  0  0  0  0  0
   15.3214  -12.3797   19.4062 H   0  0  0  0  0  0  0  0  0  0  0  0
   18.7833  -12.2521   18.9911 H   0  0  0  0  0  0  0  0  0  0  0  0
   19.5545  -10.8729   19.8452 H   0  0  0  0  0  0  0  0  0  0  0  0
   18.4323  -15.6775   22.5898 H   0  0  0  0  0  0  0  0  0  0  0  0
   20.7768  -13.3101   19.6050 H   0  0  0  0  0  0  0  0  0  0  0  0
   21.0112  -12.2590   21.0427 H   0  0  0  0  0  0  0  0  0  0  0  0
   16.5669  -16.8791   23.4957 H   0  0  0  0  0  0  0  0  0  0  0  0
   15.6917  -15.5074   23.6325 H   0  0  0  0  0  0  0  0  0  0  0  0
   17.4695  -14.4382   25.2071 H   0  0  0  0  0  0  0  0  0  0  0  0
   18.0758  -16.1247   25.0852 H   0  0  0  0  0  0  0  0  0  0  0  0
   14.7396   -9.1740   19.8791 H   0  0  0  0  0  0  0  0  0  0  0  0
   14.4393  -10.8644   19.3508 H   0  0  0  0  0  0  0  0  0  0  0  0
   20.1524  -14.0726   22.2117 H   0  0  0  0  0  0  0  0  0  0  0  0
   19.3802  -14.7694   20.7471 H   0  0  0  0  0  0  0  0  0  0  0  0
   20.4856  -16.4626   24.1835 H   0  0  0  0  0  0  0  0  0  0  0  0
   13.1240  -12.4012   20.7462 H   0  0  0  0  0  0  0  0  0  0  0  0
   22.8099  -15.6024   24.3981 H   0  0  0  0  0  0  0  0  0  0  0  0
   11.3331  -12.5917   22.4631 H   0  0  0  0  0  0  0  0  0  0  0  0
   23.2093  -13.2589   25.1319 H   0  0  0  0  0  0  0  0  0  0  0  0
   10.8344  -10.6712   23.9659 H   0  0  0  0  0  0  0  0  0  0  0  0
   21.2844  -11.8078   25.7495 H   0  0  0  0  0  0  0  0  0  0  0  0
   18.9716  -12.6806   25.5724 H   0  0  0  0  0  0  0  0  0  0  0  0
   13.9432   -8.3796   22.0591 H   0  0  0  0  0  0  0  0  0  0  0  0
  1  2  1  0  0  0  0
  1 14  1  0  0  0  0
  1  3  1  0  0  0  0
  2  5  1  0  0  0  0
  2  7  1  0  0  0  0
  3  8  1  0  0  0  0
  3  4  2  0  0  0  0
  5  6  1  0  0  0  0
  5  9  2  0  0  0  0
  7 10  1  0  0  0  0
  8 11  1  0  0  0  0
  8 12  1  0  0  0  0
  9 13  1  0  0  0  0
 10 14  1  0  0  0  0
 12 15  1  0  0  0  0
 13 16  1  0  0  0  0
 15 17  2  0  0  0  0
 15 25  1  0  0  0  0
 16 18  2  0  0  0  0
 16 26  1  0  0  0  0
 17 19  1  0  0  0  0
 18 20  1  0  0  0  0
 19 21  2  0  0  0  0
 20 22  2  0  0  0  0
 21 23  1  0  0  0  0
 22 24  1  0  0  0  0
 23 25  2  0  0  0  0
 24 26  2  0  0  0  0
 24 27  1  0  0  0  0
  2 28  1  0  0  0  0
  6 29  1  0  0  0  0
  7 30  1  0  0  0  0
  7 31  1  0  0  0  0
  8 32  1  0  0  0  0
 10 33  1  0  0  0  0
 10 34  1  0  0  0  0
 11 35  1  0  0  0  0
 11 36  1  0  0  0  0
 12 37  1  0  0  0  0
 12 38  1  0  0  0  0
 13 39  1  0  0  0  0
 13 40  1  0  0  0  0
 14 41  1  0  0  0  0
 14 42  1  0  0  0  0
 17 43  1  0  0  0  0
 18 44  1  0  0  0  0
 19 45  1  0  0  0  0
 20 46  1  0  0  0  0
 21 47  1  0  0  0  0
 22 48  1  0  0  0  0
 23 49  1  0  0  0  0
 25 50  1  0  0  0  0
 26 51  1  0  0  0  0
M  END
> <r_user_dG.exp>
-8.25

$$$$
1d
  -OEChem-05162309453D
 Structure written by MMmdl.
 51 53  0     1  0  0  0  0  0999 V2000
   18.2724  -13.2441   21.7072 N   0  0  0  0  0  0  0  0  0  0  0  0
   18.0753  -11.9483   21.0285 C   0  0  2  0  0  0  0  0  0  0  0  0
   17.4016  -13.7827   22.5957 C   0  0  0  0  0  0  0  0  0  0  0  0
   16.4030  -13.1700   22.9772 O   0  0  0  0  0  0  0  0  0  0  0  0
   16.6731  -11.7594   20.4013 C   0  0  0  0  0  0  0  0  0  0  0  0
   16.1781  -12.6531   19.7125 O   0  0  0  0  0  0  0  0  0  0  0  0
   19.1739  -11.8989   19.9568 C   0  0  0  0  0  0  0  0  0  0  0  0
   17.6534  -15.1828   23.1886 C   0  0  2  0  0  0  0  0  0  0  0  0
   16.0509  -10.6004   20.6443 N   0  0  0  0  0  0  0  0  0  0  0  0
   20.2726  -12.8189   20.4503 C   0  0  0  0  0  0  0  0  0  0  0  0
   16.4103  -15.9689   23.1123 N   0  0  0  0  0  0  0  0  0  0  0  0
   18.1391  -15.1142   24.6551 C   0  0  0  0  0  0  0  0  0  0  0  0
   14.7145  -10.2250   20.2026 C   0  0  0  0  0  0  0  0  0  0  0  0
   19.5531  -13.8450   21.3178 C   0  0  0  0  0  0  0  0  0  0  0  0
   19.5631  -14.6147   24.8265 C   0  0  0  0  0  0  0  0  0  0  0  0
   13.6469  -10.3699   21.2731 C   0  0  0  0  0  0  0  0  0  0  0  0
   20.6572  -15.4491   24.5148 C   0  0  0  0  0  0  0  0  0  0  0  0
   12.9112  -11.5669   21.3982 C   0  0  0  0  0  0  0  0  0  0  0  0
   21.9737  -14.9613   24.6353 C   0  0  0  0  0  0  0  0  0  0  0  0
   11.8983  -11.6758   22.3733 C   0  0  0  0  0  0  0  0  0  0  0  0
   22.2010  -13.6398   25.0643 C   0  0  0  0  0  0  0  0  0  0  0  0
   11.6219  -10.5921   23.2310 C   0  0  0  0  0  0  0  0  0  0  0  0
   21.1131  -12.8168   25.4045 C   0  0  0  0  0  0  0  0  0  0  0  0
   12.3743   -9.4058   23.1282 C   0  0  0  0  0  0  0  0  0  0  0  0
   19.8041  -13.3100   25.2945 C   0  0  0  0  0  0  0  0  0  0  0  0
   13.3767   -9.2950   22.1455 C   0  0  0  0  0  0  0  0  0  0  0  0
   12.0627   -7.8307   24.4709 I   0  0  0  0  0  0  0  0  0  0  0  0
   18.2482  -11.1318   21.7450 H   0  0  0  0  0  0  0  0  0  0  0  0
   16.8243  -14.2278   21.7719 H   0  0  0  0  0  0  0  0  0  0  0  0
   15.9185  -13.7060   23.5940 H   0  0  0  0  0  0  0  0  0  0  0  0
   18.7833  -12.2521   18.9911 H   0  0  0  0  0  0  0  0  0  0  0  0
   19.5545  -10.8729   19.8452 H   0  0  0  0  0  0  0  0  0  0  0  0
   16.5534   -9.9241   21.1830 H   0  0  0  0  0  0  0  0  0  0  0  0
   20.7768  -13.3101   19.6050 H   0  0  0  0  0  0  0  0  0  0  0  0
   21.0112  -12.2590   21.0427 H   0  0  0  0  0  0  0  0  0  0  0  0
   16.1226  -16.3028   24.0099 H   0  0  0  0  0  0  0  0  0  0  0  0
   17.4695  -14.4382   25.2071 H   0  0  0  0  0  0  0  0  0  0  0  0
   18.0758  -16.1247   25.0852 H   0  0  0  0  0  0  0  0  0  0  0  0
   14.7396   -9.1740   19.8791 H   0  0  0  0  0  0  0  0  0  0  0  0
   14.4393  -10.8644   19.3508 H   0  0  0  0  0  0  0  0  0  0  0  0
   20.1524  -14.0726   22.2117 H   0  0  0  0  0  0  0  0  0  0  0  0
   19.3802  -14.7694   20.7471 H   0  0  0  0  0  0  0  0  0  0  0  0
   20.4856  -16.4626   24.1835 H   0  0  0  0  0  0  0  0  0  0  0  0
   13.1240  -12.4012   20.7462 H   0  0  0  0  0  0  0  0  0  0  0  0
   22.8099  -15.6024   24.3981 H   0  0  0  0  0  0  0  0  0  0  0  0
   11.3331  -12.5917   22.4631 H   0  0  0  0  0  0  0  0  0  0  0  0
   23.2093  -13.2589   25.1319 H   0  0  0  0  0  0  0  0  0  0  0  0
   10.8344  -10.6712   23.9659 H   0  0  0  0  0  0  0  0  0  0  0  0
   21.2844  -11.8078   25.7495 H   0  0  0  0  0  0  0  0  0  0  0  0
   18.9716  -12.6806   25.5724 H   0  0  0  0  0  0  0  0  0  0  0  0
   13.9432   -8.3796   22.0591 H   0  0  0  0  0  0  0  0  0  0  0  0
  1  2  1  0  0  0  0
  1 14  1  0  0  0  0
  1  3  1  0  0  0  0
  2  5  1  0  0  0  0
  2  7  1  0  0  0  0
  3  8  1  0  0  0  0
  3  4  1  0  0  0  0
  5  6  2  0  0  0  0
  5  9  1  0  0  0  0
  7 10  1  0  0  0  0
  8 11  2  0  0  0  0
  8 12  1  0  0  0  0
  9 13  1  0  0  0  0
 10 14  1  0  0  0  0
 12 15  1  0  0  0  0
 13 16  1  0  0  0  0
 15 17  2  0  0  0  0
 15 25  1  0  0  0  0
 16 18  2  0  0  0  0
 16 26  1  0  0  0  0
 17 19  1  0  0  0  0
 18 20  1  0  0  0  0
 19 21  2  0  0  0  0
 20 22  2  0  0  0  0
 21 23  1  0  0  0  0
 22 24  1  0  0  0  0
 23 25  2  0  0  0  0
 24 26  2  0  0  0  0
 24 27  1  0  0  0  0
  2 28  1  0  0  0  0
  3 29  1  0  0  0  0
  4 30  1  0  0  0  0
  7 31  1  0  0  0  0
  7 32  1  0  0  0  0
  9 33  1  0  0  0  0
 10 34  1  0  0  0  0
 10 35  1  0  0  0  0
 11 36  1  0  0  0  0
 12 37  1  0  0  0  0
 12 38  1  0  0  0  0
 13 39  1  0  0  0  0
 13 40  1  0  0  0  0
 14 41  1  0  0  0  0
 14 42  1  0  0  0  0
 17 43  1  0  0  0  0
 18 44  1  0  0  0  0
 19 45  1  0  0  0  0
 20 46  1  0  0  0  0
 21 47  1  0  0  0  0
 22 48  1  0  0  0  0
 23 49  1  0  0  0  0
 25 50  1  0  0  0  0
 26 51  1  0  0  0  0
M  END
> <r_user_dG.exp>
-8.25

$$$$
1d
  -OEChem-05162309453D
 Structure written by MMmdl.
 51 53  0     1  0  0  0  0  0999 V2000
   18.2724  -13.2441   21.7072 N   0  0  0  0  0  0  0  0  0  0  0  0
   18.0753  -11.9483   21.0285 C   0  0  2  0  0  0  0  0  0  0  0  0
   17.4016  -13.7827   22.5957 C   0  0  0  0  0  0  0  0  0  0  0  0
   16.4030  -13.1700   22.9772 O   0  0  0  0  0  0  0  0  0  0  0  0
   16.6731  -11.7594   20.4013 C   0  0  0  0  0  0  0  0  0  0  0  0
   16.1781  -12.6531   19.7125 O   0  0  0  0  0  0  0  0  0  0  0  0
   19.1739  -11.8989   19.9568 C   0  0  0  0  0  0  0  0  0  0  0  0
   17.6534  -15.1828   23.1886 C   0  0  2  0  0  0  0  0  0  0  0  0
   16.0509  -10.6004   20.6443 N   0  0  0  0  0  0  0  0  0  0  0  0
   20.2726  -12.8189   20.4503 C   0  0  0  0  0  0  0  0  0  0  0  0
   16.4103  -15.9689   23.1123 N   0  0  0  0  0  0  0  0  0  0  0  0
   18.1391  -15.1142   24.6551 C   0  0  0  0  0  0  0  0  0  0  0  0
   14.7145  -10.2250   20.2026 C   0  0  0  0  0  0  0  0  0  0  0  0
   19.5531  -13.8450   21.3178 C   0  0  0  0  0  0  0  0  0  0  0  0
   19.5631  -14.6147   24.8265 C   0  0  0  0  0  0  0  0  0  0  0  0
   13.6469  -10.3699   21.2731 C   0  0  0  0  0  0  0  0  0  0  0  0
   20.6572  -15.4491   24.5148 C   0  0  0  0  0  0  0  0  0  0  0  0
   12.9112  -11.5669   21.3982 C   0  0  0  0  0  0  0  0  0  0  0  0
   21.9737  -14.9613   24.6353 C   0  0  0  0  0  0  0  0  0  0  0  0
   11.8983  -11.6758   22.3733 C   0  0  0  0  0  0  0  0  0  0  0  0
   22.2010  -13.6398   25.0643 C   0  0  0  0  0  0  0  0  0  0  0  0
   11.6219  -10.5921   23.2310 C   0  0  0  0  0  0  0  0  0  0  0  0
   21.1131  -12.8168   25.4045 C   0  0  0  0  0  0  0  0  0  0  0  0
   12.3743   -9.4058   23.1282 C   0  0  0  0  0  0  0  0  0  0  0  0
   19.8041  -13.3100   25.2945 C   0  0  0  0  0  0  0  0  0  0  0  0
   13.3767   -9.2950   22.1455 C   0  0  0  0  0  0  0  0  0  0  0  0
   12.0627   -7.8307   24.4709 I   0  0  0  0  0  0  0  0  0  0  0  0
   18.2482  -11.1318   21.7450 H   0  0  0  0  0  0  0  0  0  0  0  0
   16.8243  -14.2278   21.7719 H   0  0  0  0  0  0  0  0  0  0  0  0
   15.9185  -13.7060   23.5940 H   0  0  0  0  0  0  0  0  0  0  0  0
   15.3214  -12.3797   19.4062 H   0  0  0  0  0  0  0  0  0  0  0  0
   18.7833  -12.2521   18.9911 H   0  0  0  0  0  0  0  0  0  0  0  0
   19.5545  -10.8729   19.8452 H   0  0  0  0  0  0  0  0  0  0  0  0
   20.7768  -13.3101   19.6050 H   0  0  0  0  0  0  0  0  0  0  0  0
   21.0112  -12.2590   21.0427 H   0  0  0  0  0  0  0  0  0  0  0  0
   16.1226  -16.3028   24.0099 H   0  0  0  0  0  0  0  0  0  0  0  0
   17.4695  -14.4382   25.2071 H   0  0  0  0  0  0  0  0  0  0  0  0
   18.0758  -16.1247   25.0852 H   0  0  0  0  0  0  0  0  0  0  0  0
   14.7396   -9.1740   19.8791 H   0  0  0  0  0  0  0  0  0  0  0  0
   14.4393  -10.8644   19.3508 H   0  0  0  0  0  0  0  0  0  0  0  0
   20.1524  -14.0726   22.2117 H   0  0  0  0  0  0  0  0  0  0  0  0
   19.3802  -14.7694   20.7471 H   0  0  0  0  0  0  0  0  0  0  0  0
   20.4856  -16.4626   24.1835 H   0  0  0  0  0  0  0  0  0  0  0  0
   13.1240  -12.4012   20.7462 H   0  0  0  0  0  0  0  0  0  0  0  0
   22.8099  -15.6024   24.3981 H   0  0  0  0  0  0  0  0  0  0  0  0
   11.3331  -12.5917   22.4631 H   0  0  0  0  0  0  0  0  0  0  0  0
   23.2093  -13.2589   25.1319 H   0  0  0  0  0  0  0  0  0  0  0  0
   10.8344  -10.6712   23.9659 H   0  0  0  0  0  0  0  0  0  0  0  0
   21.2844  -11.8078   25.7495 H   0  0  0  0  0  0  0  0  0  0  0  0
   18.9716  -12.6806   25.5724 H   0  0  0  0  0  0  0  0  0  0  0  0
   13.9432   -8.3796   22.0591 H   0  0  0  0  0  0  0  0  0  0  0  0
  1  2  1  0  0  0  0
  1 14  1  0  0  0  0
  1  3  1  0  0  0  0
  2  5  1  0  0  0  0
  2  7  1  0  0  0  0
  3  8  1  0  0  0  0
  3  4  1  0  0  0  0
  5  6  1  0  0  0  0
  5  9  2  0  0  0  0
  7 10  1  0  0  0  0
  8 11  2  0  0  0  0
  8 12  1  0  0  0  0
  9 13  1  0  0  0  0
 10 14  1  0  0  0  0
 12 15  1  0  0  0  0
 13 16  1  0  0  0  0
 15 17  2  0  0  0  0
 15 25  1  0  0  0  0
 16 18  2  0  0  0  0
 16 26  1  0  0  0  0
 17 19  1  0  0  0  0
 18 20  1  0  0  0  0
 19 21  2  0  0  0  0
 20 22  2  0  0  0  0
 21 23  1  0  0  0  0
 22 24  1  0  0  0  0
 23 25  2  0  0  0  0
 24 26  2  0  0  0  0
 24 27  1  0  0  0  0
  2 28  1  0  0  0  0
  3 29  1  0  0  0  0
  4 30  1  0  0  0  0
  6 31  1  0  0  0  0
  7 32  1  0  0  0  0
  7 33  1  0  0  0  0
 10 34  1  0  0  0  0
 10 35  1  0  0  0  0
 11 36  1  0  0  0  0
 12 37  1  0  0  0  0
 12 38  1  0  0  0  0
 13 39  1  0  0  0  0
 13 40  1  0  0  0  0
 14 41  1  0  0  0  0
 14 42  1  0  0  0  0
 17 43  1  0  0  0  0
 18 44  1  0  0  0  0
 19 45  1  0  0  0  0
 20 46  1  0  0  0  0
 21 47  1  0  0  0  0
 22 48  1  0  0  0  0
 23 49  1  0  0  0  0
 25 50  1  0  0  0  0
 26 51  1  0  0  0  0
M  END
> <r_user_dG.exp>
-8.25

$$$$
1d
  -OEChem-05162309453D
 Structure written by MMmdl.
 51 53  0     1  0  0  0  0  0999 V2000
   18.2724  -13.2441   21.7072 N   0  0  0  0  0  0  0  0  0  0  0  0
   18.0753  -11.9483   21.0285 C   0  0  2  0  0  0  0  0  0  0  0  0
   17.4016  -13.7827   22.5957 C   0  0  0  0  0  0  0  0  0  0  0  0
   16.4030  -13.1700   22.9772 O   0  0  0  0  0  0  0  0  0  0  0  0
   16.6731  -11.7594   20.4013 C   0  0  0  0  0  0  0  0  0  0  0  0
   16.1781  -12.6531   19.7125 O   0  0  0  0  0  0  0  0  0  0  0  0
   19.1739  -11.8989   19.9568 C   0  0  0  0  0  0  0  0  0  0  0  0
   17.6534  -15.1828   23.1886 C   0  0  2  0  0  0  0  0  0  0  0  0
   16.0509  -10.6004   20.6443 N   0  0  0  0  0  0  0  0  0  0  0  0
   20.2726  -12.8189   20.4503 C   0  0  0  0  0  0  0  0  0  0  0  0
   16.4103  -15.9689   23.1123 N   0  0  0  0  0  0  0  0  0  0  0  0
   18.1391  -15.1142   24.6551 C   0  0  0  0  0  0  0  0  0  0  0  0
   14.7145  -10.2250   20.2026 C   0  0  0  0  0  0  0  0  0  0  0  0
   19.5531  -13.8450   21.3178 C   0  0  0  0  0  0  0  0  0  0  0  0
   19.5631  -14.6147   24.8265 C   0  0  0  0  0  0  0  0  0  0  0  0
   13.6469  -10.3699   21.2731 C   0  0  0  0  0  0  0  0  0  0  0  0
   20.6572  -15.4491   24.5148 C   0  0  0  0  0  0  0  0  0  0  0  0
   12.9112  -11.5669   21.3982 C   0  0  0  0  0  0  0  0  0  0  0  0
   21.9737  -14.9613   24.6353 C   0  0  0  0  0  0  0  0  0  0  0  0
   11.8983  -11.6758   22.3733 C   0  0  0  0  0  0  0  0  0  0  0  0
   22.2010  -13.6398   25.0643 C   0  0  0  0  0  0  0  0  0  0  0  0
   11.6219  -10.5921   23.2310 C   0  0  0  0  0  0  0  0  0  0  0  0
   21.1131  -12.8168   25.4045 C   0  0  0  0  0  0  0  0  0  0  0  0
   12.3743   -9.4058   23.1282 C   0  0  0  0  0  0  0  0  0  0  0  0
   19.8041  -13.3100   25.2945 C   0  0  0  0  0  0  0  0  0  0  0  0
   13.3767   -9.2950   22.1455 C   0  0  0  0  0  0  0  0  0  0  0  0
   12.0627   -7.8307   24.4709 I   0  0  0  0  0  0  0  0  0  0  0  0
   18.2482  -11.1318   21.7450 H   0  0  0  0  0  0  0  0  0  0  0  0
   15.9185  -13.7060   23.5940 H   0  0  0  0  0  0  0  0  0  0  0  0
   18.7833  -12.2521   18.9911 H   0  0  0  0  0  0  0  0  0  0  0  0
   19.5545  -10.8729   19.8452 H   0  0  0  0  0  0  0  0  0  0  0  0
   16.5534   -9.9241   21.1830 H   0  0  0  0  0  0  0  0  0  0  0  0
   20.7768  -13.3101   19.6050 H   0  0  0  0  0  0  0  0  0  0  0  0
   21.0112  -12.2590   21.0427 H   0  0  0  0  0  0  0  0  0  0  0  0
   16.5669  -16.8791   23.4957 H   0  0  0  0  0  0  0  0  0  0  0  0
   15.6917  -15.5074   23.6325 H   0  0  0  0  0  0  0  0  0  0  0  0
   17.4695  -14.4382   25.2071 H   0  0  0  0  0  0  0  0  0  0  0  0
   18.0758  -16.1247   25.0852 H   0  0  0  0  0  0  0  0  0  0  0  0
   14.7396   -9.1740   19.8791 H   0  0  0  0  0  0  0  0  0  0  0  0
   14.4393  -10.8644   19.3508 H   0  0  0  0  0  0  0  0  0  0  0  0
   20.1524  -14.0726   22.2117 H   0  0  0  0  0  0  0  0  0  0  0  0
   19.3802  -14.7694   20.7471 H   0  0  0  0  0  0  0  0  0  0  0  0
   20.4856  -16.4626   24.1835 H   0  0  0  0  0  0  0  0  0  0  0  0
   13.1240  -12.4012   20.7462 H   0  0  0  0  0  0  0  0  0  0  0  0
   22.8099  -15.6024   24.3981 H   0  0  0  0  0  0  0  0  0  0  0  0
   11.3331  -12.5917   22.4631 H   0  0  0  0  0  0  0  0  0  0  0  0
   23.2093  -13.2589   25.1319 H   0  0  0  0  0  0  0  0  0  0  0  0
   10.8344  -10.6712   23.9659 H   0  0  0  0  0  0  0  0  0  0  0  0
   21.2844  -11.8078   25.7495 H   0  0  0  0  0  0  0  0  0  0  0  0
   18.9716  -12.6806   25.5724 H   0  0  0  0  0  0  0  0  0  0  0  0
   13.9432   -8.3796   22.0591 H   0  0  0  0  0  0  0  0  0  0  0  0
  1  2  1  0  0  0  0
  1 14  1  0  0  0  0
  1  3  1  0  0  0  0
  2  5  1  0  0  0  0
  2  7  1  0  0  0  0
  3  8  2  0  0  0  0
  3  4  1  0  0  0  0
  5  6  2  0  0  0  0
  5  9  1  0  0  0  0
  7 10  1  0  0  0  0
  8 11  1  0  0  0  0
  8 12  1  0  0  0  0
  9 13  1  0  0  0  0
 10 14  1  0  0  0  0
 12 15  1  0  0  0  0
 13 16  1  0  0  0  0
 15 17  2  0  0  0  0
 15 25  1  0  0  0  0
 16 18  2  0  0  0  0
 16 26  1  0  0  0  0
 17 19  1  0  0  0  0
 18 20  1  0  0  0  0
 19 21  2  0  0  0  0
 20 22  2  0  0  0  0
 21 23  1  0  0  0  0
 22 24  1  0  0  0  0
 23 25  2  0  0  0  0
 24 26  2  0  0  0  0
 24 27  1  0  0  0  0
  2 28  1  0  0  0  0
  4 29  1  0  0  0  0
  7 30  1  0  0  0  0
  7 31  1  0  0  0  0
  9 32  1  0  0  0  0
 10 33  1  0  0  0  0
 10 34  1  0  0  0  0
 11 35  1  0  0  0  0
 11 36  1  0  0  0  0
 12 37  1  0  0  0  0
 12 38  1  0  0  0  0
 13 39  1  0  0  0  0
 13 40  1  0  0  0  0
 14 41  1  0  0  0  0
 14 42  1  0  0  0  0
 17 43  1  0  0  0  0
 18 44  1  0  0  0  0
 19 45  1  0  0  0  0
 20 46  1  0  0  0  0
 21 47  1  0  0  0  0
 22 48  1  0  0  0  0
 23 49  1  0  0  0  0
 25 50  1  0  0  0  0
 26 51  1  0  0  0  0
M  END
> <r_user_dG.exp>
-8.25

$$$$
1d
  -OEChem-05162309453D
 Structure written by MMmdl.
 51 53  0     1  0  0  0  0  0999 V2000
   18.2724  -13.2441   21.7072 N   0  0  0  0  0  0  0  0  0  0  0  0
   18.0753  -11.9483   21.0285 C   0  0  2  0  0  0  0  0  0  0  0  0
   17.4016  -13.7827   22.5957 C   0  0  0  0  0  0  0  0  0  0  0  0
   16.4030  -13.1700   22.9772 O   0  0  0  0  0  0  0  0  0  0  0  0
   16.6731  -11.7594   20.4013 C   0  0  0  0  0  0  0  0  0  0  0  0
   16.1781  -12.6531   19.7125 O   0  0  0  0  0  0  0  0  0  0  0  0
   19.1739  -11.8989   19.9568 C   0  0  0  0  0  0  0  0  0  0  0  0
   17.6534  -15.1828   23.1886 C   0  0  2  0  0  0  0  0  0  0  0  0
   16.0509  -10.6004   20.6443 N   0  0  0  0  0  0  0  0  0  0  0  0
   20.2726  -12.8189   20.4503 C   0  0  0  0  0  0  0  0  0  0  0  0
   16.4103  -15.9689   23.1123 N   0  0  0  0  0  0  0  0  0  0  0  0
   18.1391  -15.1142   24.6551 C   0  0  0  0  0  0  0  0  0  0  0  0
   14.7145  -10.2250   20.2026 C   0  0  0  0  0  0  0  0  0  0  0  0
   19.5531  -13.8450   21.3178 C   0  0  0  0  0  0  0  0  0  0  0  0
   19.5631  -14.6147   24.8265 C   0  0  0  0  0  0  0  0  0  0  0  0
   13.6469  -10.3699   21.2731 C   0  0  0  0  0  0  0  0  0  0  0  0
   20.6572  -15.4491   24.5148 C   0  0  0  0  0  0  0  0  0  0  0  0
   12.9112  -11.5669   21.3982 C   0  0  0  0  0  0  0  0  0  0  0  0
   21.9737  -14.9613   24.6353 C   0  0  0  0  0  0  0  0  0  0  0  0
   11.8983  -11.6758   22.3733 C   0  0  0  0  0  0  0  0  0  0  0  0
   22.2010  -13.6398   25.0643 C   0  0  0  0  0  0  0  0  0  0  0  0
   11.6219  -10.5921   23.2310 C   0  0  0  0  0  0  0  0  0  0  0  0
   21.1131  -12.8168   25.4045 C   0  0  0  0  0  0  0  0  0  0  0  0
   12.3743   -9.4058   23.1282 C   0  0  0  0  0  0  0  0  0  0  0  0
   19.8041  -13.3100   25.2945 C   0  0  0  0  0  0  0  0  0  0  0  0
   13.3767   -9.2950   22.1455 C   0  0  0  0  0  0  0  0  0  0  0  0
   12.0627   -7.8307   24.4709 I   0  0  0  0  0  0  0  0  0  0  0  0
   18.2482  -11.1318   21.7450 H   0  0  0  0  0  0  0  0  0  0  0  0
   15.9185  -13.7060   23.5940 H   0  0  0  0  0  0  0  0  0  0  0  0
   15.3214  -12.3797   19.4062 H   0  0  0  0  0  0  0  0  0  0  0  0
   18.7833  -12.2521   18.9911 H   0  0  0  0  0  0  0  0  0  0  0  0
   19.5545  -10.8729   19.8452 H   0  0  0  0  0  0  0  0  0  0  0  0
   20.7768  -13.3101   19.6050 H   0  0  0  0  0  0  0  0  0  0  0  0
   21.0112  -12.2590   21.0427 H   0  0  0  0  0  0  0  0  0  0  0  0
   16.5669  -16.8791   23.4957 H   0  0  0  0  0  0  0  0  0  0  0  0
   15.6917  -15.5074   23.6325 H   0  0  0  0  0  0  0  0  0  0  0  0
   17.4695  -14.4382   25.2071 H   0  0  0  0  0  0  0  0  0  0  0  0
   18.0758  -16.1247   25.0852 H   0  0  0  0  0  0  0  0  0  0  0  0
   14.7396   -9.1740   19.8791 H   0  0  0  0  0  0  0  0  0  0  0  0
   14.4393  -10.8644   19.3508 H   0  0  0  0  0  0  0  0  0  0  0  0
   20.1524  -14.0726   22.2117 H   0  0  0  0  0  0  0  0  0  0  0  0
   19.3802  -14.7694   20.7471 H   0  0  0  0  0  0  0  0  0  0  0  0
   20.4856  -16.4626   24.1835 H   0  0  0  0  0  0  0  0  0  0  0  0
   13.1240  -12.4012   20.7462 H   0  0  0  0  0  0  0  0  0  0  0  0
   22.8099  -15.6024   24.3981 H   0  0  0  0  0  0  0  0  0  0  0  0
   11.3331  -12.5917   22.4631 H   0  0  0  0  0  0  0  0  0  0  0  0
   23.2093  -13.2589   25.1319 H   0  0  0  0  0  0  0  0  0  0  0  0
   10.8344  -10.6712   23.9659 H   0  0  0  0  0  0  0  0  0  0  0  0
   21.2844  -11.8078   25.7495 H   0  0  0  0  0  0  0  0  0  0  0  0
   18.9716  -12.6806   25.5724 H   0  0  0  0  0  0  0  0  0  0  0  0
   13.9432   -8.3796   22.0591 H   0  0  0  0  0  0  0  0  0  0  0  0
  1  2  1  0  0  0  0
  1 14  1  0  0  0  0
  1  3  1  0  0  0  0
  2  5  1  0  0  0  0
  2  7  1  0  0  0  0
  3  8  2  0  0  0  0
  3  4  1  0  0  0  0
  5  6  1  0  0  0  0
  5  9  2  0  0  0  0
  7 10  1  0  0  0  0
  8 11  1  0  0  0  0
  8 12  1  0  0  0  0
  9 13  1  0  0  0  0
 10 14  1  0  0  0  0
 12 15  1  0  0  0  0
 13 16  1  0  0  0  0
 15 17  2  0  0  0  0
 15 25  1  0  0  0  0
 16 18  2  0  0  0  0
 16 26  1  0  0  0  0
 17 19  1  0  0  0  0
 18 20  1  0  0  0  0
 19 21  2  0  0  0  0
 20 22  2  0  0  0  0
 21 23  1  0  0  0  0
 22 24  1  0  0  0  0
 23 25  2  0  0  0  0
 24 26  2  0  0  0  0
 24 27  1  0  0  0  0
  2 28  1  0  0  0  0
  4 29  1  0  0  0  0
  6 30  1  0  0  0  0
  7 31  1  0  0  0  0
  7 32  1  0  0  0  0
 10 33  1  0  0  0  0
 10 34  1  0  0  0  0
 11 35  1  0  0  0  0
 11 36  1  0  0  0  0
 12 37  1  0  0  0  0
 12 38  1  0  0  0  0
 13 39  1  0  0  0  0
 13 40  1  0  0  0  0
 14 41  1  0  0  0  0
 14 42  1  0  0  0  0
 17 43  1  0  0  0  0
 18 44  1  0  0  0  0
 19 45  1  0  0  0  0
 20 46  1  0  0  0  0
 21 47  1  0  0  0  0
 22 48  1  0  0  0  0
 23 49  1  0  0  0  0
 25 50  1  0  0  0  0
 26 51  1  0  0  0  0
M  END
> <r_user_dG.exp>
-8.25

$$$$
