6a
  -OEChem-05162309453D
 Structure written by MMmdl.
 51 53  0     1  0  0  0  0  0999 V2000
   18.2157  -13.2003   21.6863 N   0  0  0  0  0  0  0  0  0  0  0  0
   18.0087  -11.9014   21.0167 C   0  0  2  0  0  0  0  0  0  0  0  0
   17.3504  -13.7474   22.5740 C   0  0  0  0  0  0  0  0  0  0  0  0
   16.3550  -13.1366   22.9677 O   0  0  0  0  0  0  0  0  0  0  0  0
   16.6062  -11.7346   20.3818 C   0  0  0  0  0  0  0  0  0  0  0  0
   16.1572  -12.6195   19.6529 O   0  0  0  0  0  0  0  0  0  0  0  0
   19.1142  -11.8355   19.9533 C   0  0  0  0  0  0  0  0  0  0  0  0
   17.6071  -15.1533   23.1501 C   0  0  2  0  0  0  0  0  0  0  0  0
   15.9284  -10.6140   20.6664 N   0  0  0  0  0  0  0  0  0  0  0  0
   20.2121  -12.7673   20.4270 C   0  0  0  0  0  0  0  0  0  0  0  0
   16.3676  -15.9435   23.0624 N   0  0  0  0  0  0  0  0  0  0  0  0
   18.0947  -15.1005   24.6172 C   0  0  0  0  0  0  0  0  0  0  0  0
   14.5615  -10.3074   20.2469 C   0  0  0  0  0  0  0  0  0  0  0  0
   19.4961  -13.7972   21.2906 C   0  0  0  0  0  0  0  0  0  0  0  0
   19.5224  -14.6112   24.7960 C   0  0  0  0  0  0  0  0  0  0  0  0
   13.5216  -10.3907   21.3623 C   0  0  0  0  0  0  0  0  0  0  0  0
   19.7728  -13.3212   25.2992 C   0  0  0  0  0  0  0  0  0  0  0  0
   12.7061  -11.5351   21.5535 C   0  0  0  0  0  0  0  0  0  0  0  0
   21.0848  -12.8362   25.4155 C   0  0  0  0  0  0  0  0  0  0  0  0
   11.7284  -11.5437   22.5691 C   0  0  0  0  0  0  0  0  0  0  0  0
   22.1672  -13.6542   25.0464 C   0  0  0  0  0  0  0  0  0  0  0  0
   11.5492  -10.4209   23.3986 C   0  0  0  0  0  0  0  0  0  0  0  0
   21.9309  -14.9609   24.5786 C   0  0  0  0  0  0  0  0  0  0  0  0
   12.3658   -9.2886   23.2270 C   0  0  0  0  0  0  0  0  0  0  0  0
   20.6114  -15.4396   24.4521 C   0  0  0  0  0  0  0  0  0  0  0  0
   13.3428   -9.2754   22.2113 C   0  0  0  0  0  0  0  0  0  0  0  0
   12.8565  -12.9335   20.5533 Cl  0  0  0  0  0  0  0  0  0  0  0  0
   12.1952   -7.9330   24.2824 Cl  0  0  0  0  0  0  0  0  0  0  0  0
   18.1649  -11.0868   21.7392 H   0  0  0  0  0  0  0  0  0  0  0  0
   18.7264  -12.1673   18.9789 H   0  0  0  0  0  0  0  0  0  0  0  0
   19.4976  -10.8083   19.8648 H   0  0  0  0  0  0  0  0  0  0  0  0
   18.3880  -15.6373   22.5451 H   0  0  0  0  0  0  0  0  0  0  0  0
   16.4005   -9.9246   21.2158 H   0  0  0  0  0  0  0  0  0  0  0  0
   20.7051  -13.2529   19.5719 H   0  0  0  0  0  0  0  0  0  0  0  0
   20.9598  -12.2177   21.0176 H   0  0  0  0  0  0  0  0  0  0  0  0
   16.5275  -16.8577   23.4349 H   0  0  0  0  0  0  0  0  0  0  0  0
   15.6463  -15.4913   23.5871 H   0  0  0  0  0  0  0  0  0  0  0  0
   17.4290  -14.4255   25.1752 H   0  0  0  0  0  0  0  0  0  0  0  0
   18.0251  -16.1145   25.0379 H   0  0  0  0  0  0  0  0  0  0  0  0
   14.5481   -9.2852   19.8407 H   0  0  0  0  0  0  0  0  0  0  0  0
   14.2766  -11.0192   19.4581 H   0  0  0  0  0  0  0  0  0  0  0  0
   20.0979  -14.0284   22.1819 H   0  0  0  0  0  0  0  0  0  0  0  0
   19.3229  -14.7190   20.7159 H   0  0  0  0  0  0  0  0  0  0  0  0
   18.9448  -12.6963   25.5998 H   0  0  0  0  0  0  0  0  0  0  0  0
   21.2623  -11.8379   25.7873 H   0  0  0  0  0  0  0  0  0  0  0  0
   11.1119  -12.4189   22.7118 H   0  0  0  0  0  0  0  0  0  0  0  0
   23.1778  -13.2809   25.1216 H   0  0  0  0  0  0  0  0  0  0  0  0
   10.7874  -10.4287   24.1641 H   0  0  0  0  0  0  0  0  0  0  0  0
   22.7626  -15.5979   24.3161 H   0  0  0  0  0  0  0  0  0  0  0  0
   20.4336  -16.4419   24.0914 H   0  0  0  0  0  0  0  0  0  0  0  0
   13.9631   -8.4011   22.0801 H   0  0  0  0  0  0  0  0  0  0  0  0
  1  2  1  0  0  0  0
  1 14  1  0  0  0  0
  1  3  1  0  0  0  0
  2  5  1  0  0  0  0
  2  7  1  0  0  0  0
  3  8  1  0  0  0  0
  3  4  2  0  0  0  0
  5  6  2  0  0  0  0
  5  9  1  0  0  0  0
  7 10  1  0  0  0  0
  8 11  1  0  0  0  0
  8 12  1  0  0  0  0
  9 13  1  0  0  0  0
 10 14  1  0  0  0  0
 12 15  1  0  0  0  0
 13 16  1  0  0  0  0
 15 17  2  0  0  0  0
 15 25  1  0  0  0  0
 16 18  2  0  0  0  0
 16 26  1  0  0  0  0
 17 19  1  0  0  0  0
 18 20  1  0  0  0  0
 18 27  1  0  0  0  0
 19 21  2  0  0  0  0
 20 22  2  0  0  0  0
 21 23  1  0  0  0  0
 22 24  1  0  0  0  0
 23 25  2  0  0  0  0
 24 26  2  0  0  0  0
 24 28  1  0  0  0  0
  2 29  1  0  0  0  0
  7 30  1  0  0  0  0
  7 31  1  0  0  0  0
  8 32  1  0  0  0  0
  9 33  1  0  0  0  0
 10 34  1  0  0  0  0
 10 35  1  0  0  0  0
 11 36  1  0  0  0  0
 11 37  1  0  0  0  0
 12 38  1  0  0  0  0
 12 39  1  0  0  0  0
 13 40  1  0  0  0  0
 13 41  1  0  0  0  0
 14 42  1  0  0  0  0
 14 43  1  0  0  0  0
 17 44  1  0  0  0  0
 19 45  1  0  0  0  0
 20 46  1  0  0  0  0
 21 47  1  0  0  0  0
 22 48  1  0  0  0  0
 23 49  1  0  0  0  0
 25 50  1  0  0  0  0
 26 51  1  0  0  0  0
M  END
> <r_user_dG.exp>
-9.18

$$$$
6a
  -OEChem-05162309453D
 Structure written by MMmdl.
 51 53  0     1  0  0  0  0  0999 V2000
   18.2157  -13.2003   21.6863 N   0  0  0  0  0  0  0  0  0  0  0  0
   18.0087  -11.9014   21.0167 C   0  0  2  0  0  0  0  0  0  0  0  0
   17.3504  -13.7474   22.5740 C   0  0  0  0  0  0  0  0  0  0  0  0
   16.3550  -13.1366   22.9677 O   0  0  0  0  0  0  0  0  0  0  0  0
   16.6062  -11.7346   20.3818 C   0  0  0  0  0  0  0  0  0  0  0  0
   16.1572  -12.6195   19.6529 O   0  0  0  0  0  0  0  0  0  0  0  0
   19.1142  -11.8355   19.9533 C   0  0  0  0  0  0  0  0  0  0  0  0
   17.6071  -15.1533   23.1501 C   0  0  2  0  0  0  0  0  0  0  0  0
   15.9284  -10.6140   20.6664 N   0  0  0  0  0  0  0  0  0  0  0  0
   20.2121  -12.7673   20.4270 C   0  0  0  0  0  0  0  0  0  0  0  0
   16.3676  -15.9435   23.0624 N   0  0  0  0  0  0  0  0  0  0  0  0
   18.0947  -15.1005   24.6172 C   0  0  0  0  0  0  0  0  0  0  0  0
   14.5615  -10.3074   20.2469 C   0  0  0  0  0  0  0  0  0  0  0  0
   19.4961  -13.7972   21.2906 C   0  0  0  0  0  0  0  0  0  0  0  0
   19.5224  -14.6112   24.7960 C   0  0  0  0  0  0  0  0  0  0  0  0
   13.5216  -10.3907   21.3623 C   0  0  0  0  0  0  0  0  0  0  0  0
   19.7728  -13.3212   25.2992 C   0  0  0  0  0  0  0  0  0  0  0  0
   12.7061  -11.5351   21.5535 C   0  0  0  0  0  0  0  0  0  0  0  0
   21.0848  -12.8362   25.4155 C   0  0  0  0  0  0  0  0  0  0  0  0
   11.7284  -11.5437   22.5691 C   0  0  0  0  0  0  0  0  0  0  0  0
   22.1672  -13.6542   25.0464 C   0  0  0  0  0  0  0  0  0  0  0  0
   11.5492  -10.4209   23.3986 C   0  0  0  0  0  0  0  0  0  0  0  0
   21.9309  -14.9609   24.5786 C   0  0  0  0  0  0  0  0  0  0  0  0
   12.3658   -9.2886   23.2270 C   0  0  0  0  0  0  0  0  0  0  0  0
   20.6114  -15.4396   24.4521 C   0  0  0  0  0  0  0  0  0  0  0  0
   13.3428   -9.2754   22.2113 C   0  0  0  0  0  0  0  0  0  0  0  0
   12.8565  -12.9335   20.5533 Cl  0  0  0  0  0  0  0  0  0  0  0  0
   12.1952   -7.9330   24.2824 Cl  0  0  0  0  0  0  0  0  0  0  0  0
   18.1649  -11.0868   21.7392 H   0  0  0  0  0  0  0  0  0  0  0  0
   15.2941  -12.3691   19.3449 H   0  0  0  0  0  0  0  0  0  0  0  0
   18.7264  -12.1673   18.9789 H   0  0  0  0  0  0  0  0  0  0  0  0
   19.4976  -10.8083   19.8648 H   0  0  0  0  0  0  0  0  0  0  0  0
   18.3880  -15.6373   22.5451 H   0  0  0  0  0  0  0  0  0  0  0  0
   20.7051  -13.2529   19.5719 H   0  0  0  0  0  0  0  0  0  0  0  0
   20.9598  -12.2177   21.0176 H   0  0  0  0  0  0  0  0  0  0  0  0
   16.5275  -16.8577   23.4349 H   0  0  0  0  0  0  0  0  0  0  0  0
   15.6463  -15.4913   23.5871 H   0  0  0  0  0  0  0  0  0  0  0  0
   17.4290  -14.4255   25.1752 H   0  0  0  0  0  0  0  0  0  0  0  0
   18.0251  -16.1145   25.0379 H   0  0  0  0  0  0  0  0  0  0  0  0
   14.5481   -9.2852   19.8407 H   0  0  0  0  0  0  0  0  0  0  0  0
   14.2766  -11.0192   19.4581 H   0  0  0  0  0  0  0  0  0  0  0  0
   20.0979  -14.0284   22.1819 H   0  0  0  0  0  0  0  0  0  0  0  0
   19.3229  -14.7190   20.7159 H   0  0  0  0  0  0  0  0  0  0  0  0
   18.9448  -12.6963   25.5998 H   0  0  0  0  0  0  0  0  0  0  0  0
   21.2623  -11.8379   25.7873 H   0  0  0  0  0  0  0  0  0  0  0  0
   11.1119  -12.4189   22.7118 H   0  0  0  0  0  0  0  0  0  0  0  0
   23.1778  -13.2809   25.1216 H   0  0  0  0  0  0  0  0  0  0  0  0
   10.7874  -10.4287   24.1641 H   0  0  0  0  0  0  0  0  0  0  0  0
   22.7626  -15.5979   24.3161 H   0  0  0  0  0  0  0  0  0  0  0  0
   20.4336  -16.4419   24.0914 H   0  0  0  0  0  0  0  0  0  0  0  0
   13.9631   -8.4011   22.0801 H   0  0  0  0  0  0  0  0  0  0  0  0
  1  2  1  0  0  0  0
  1 14  1  0  0  0  0
  1  3  1  0  0  0  0
  2  5  1  0  0  0  0
  2  7  1  0  0  0  0
  3  8  1  0  0  0  0
  3  4  2  0  0  0  0
  5  6  1  0  0  0  0
  5  9  2  0  0  0  0
  7 10  1  0  0  0  0
  8 11  1  0  0  0  0
  8 12  1  0  0  0  0
  9 13  1  0  0  0  0
 10 14  1  0  0  0  0
 12 15  1  0  0  0  0
 13 16  1  0  0  0  0
 15 17  2  0  0  0  0
 15 25  1  0  0  0  0
 16 18  2  0  0  0  0
 16 26  1  0  0  0  0
 17 19  1  0  0  0  0
 18 20  1  0  0  0  0
 18 27  1  0  0  0  0
 19 21  2  0  0  0  0
 20 22  2  0  0  0  0
 21 23  1  0  0  0  0
 22 24  1  0  0  0  0
 23 25  2  0  0  0  0
 24 26  2  0  0  0  0
 24 28  1  0  0  0  0
  2 29  1  0  0  0  0
  6 30  1  0  0  0  0
  7 31  1  0  0  0  0
  7 32  1  0  0  0  0
  8 33  1  0  0  0  0
 10 34  1  0  0  0  0
 10 35  1  0  0  0  0
 11 36  1  0  0  0  0
 11 37  1  0  0  0  0
 12 38  1  0  0  0  0
 12 39  1  0  0  0  0
 13 40  1  0  0  0  0
 13 41  1  0  0  0  0
 14 42  1  0  0  0  0
 14 43  1  0  0  0  0
 17 44  1  0  0  0  0
 19 45  1  0  0  0  0
 20 46  1  0  0  0  0
 21 47  1  0  0  0  0
 22 48  1  0  0  0  0
 23 49  1  0  0  0  0
 25 50  1  0  0  0  0
 26 51  1  0  0  0  0
M  END
> <r_user_dG.exp>
-9.18

$$$$
6a
  -OEChem-05162309453D
 Structure written by MMmdl.
 51 53  0     1  0  0  0  0  0999 V2000
   18.2157  -13.2003   21.6863 N   0  0  0  0  0  0  0  0  0  0  0  0
   18.0087  -11.9014   21.0167 C   0  0  2  0  0  0  0  0  0  0  0  0
   17.3504  -13.7474   22.5740 C   0  0  0  0  0  0  0  0  0  0  0  0
   16.3550  -13.1366   22.9677 O   0  0  0  0  0  0  0  0  0  0  0  0
   16.6062  -11.7346   20.3818 C   0  0  0  0  0  0  0  0  0  0  0  0
   16.1572  -12.6195   19.6529 O   0  0  0  0  0  0  0  0  0  0  0  0
   19.1142  -11.8355   19.9533 C   0  0  0  0  0  0  0  0  0  0  0  0
   17.6071  -15.1533   23.1501 C   0  0  2  0  0  0  0  0  0  0  0  0
   15.9284  -10.6140   20.6664 N   0  0  0  0  0  0  0  0  0  0  0  0
   20.2121  -12.7673   20.4270 C   0  0  0  0  0  0  0  0  0  0  0  0
   16.3676  -15.9435   23.0624 N   0  0  0  0  0  0  0  0  0  0  0  0
   18.0947  -15.1005   24.6172 C   0  0  0  0  0  0  0  0  0  0  0  0
   14.5615  -10.3074   20.2469 C   0  0  0  0  0  0  0  0  0  0  0  0
   19.4961  -13.7972   21.2906 C   0  0  0  0  0  0  0  0  0  0  0  0
   19.5224  -14.6112   24.7960 C   0  0  0  0  0  0  0  0  0  0  0  0
   13.5216  -10.3907   21.3623 C   0  0  0  0  0  0  0  0  0  0  0  0
   19.7728  -13.3212   25.2992 C   0  0  0  0  0  0  0  0  0  0  0  0
   12.7061  -11.5351   21.5535 C   0  0  0  0  0  0  0  0  0  0  0  0
   21.0848  -12.8362   25.4155 C   0  0  0  0  0  0  0  0  0  0  0  0
   11.7284  -11.5437   22.5691 C   0  0  0  0  0  0  0  0  0  0  0  0
   22.1672  -13.6542   25.0464 C   0  0  0  0  0  0  0  0  0  0  0  0
   11.5492  -10.4209   23.3986 C   0  0  0  0  0  0  0  0  0  0  0  0
   21.9309  -14.9609   24.5786 C   0  0  0  0  0  0  0  0  0  0  0  0
   12.3658   -9.2886   23.2270 C   0  0  0  0  0  0  0  0  0  0  0  0
   20.6114  -15.4396   24.4521 C   0  0  0  0  0  0  0  0  0  0  0  0
   13.3428   -9.2754   22.2113 C   0  0  0  0  0  0  0  0  0  0  0  0
   12.8565  -12.9335   20.5533 Cl  0  0  0  0  0  0  0  0  0  0  0  0
   12.1952   -7.9330   24.2824 Cl  0  0  0  0  0  0  0  0  0  0  0  0
   18.1649  -11.0868   21.7392 H   0  0  0  0  0  0  0  0  0  0  0  0
   16.7676  -14.1838   21.7494 H   0  0  0  0  0  0  0  0  0  0  0  0
   15.8731  -13.6780   23.5818 H   0  0  0  0  0  0  0  0  0  0  0  0
   18.7264  -12.1673   18.9789 H   0  0  0  0  0  0  0  0  0  0  0  0
   19.4976  -10.8083   19.8648 H   0  0  0  0  0  0  0  0  0  0  0  0
   16.4005   -9.9246   21.2158 H   0  0  0  0  0  0  0  0  0  0  0  0
   20.7051  -13.2529   19.5719 H   0  0  0  0  0  0  0  0  0  0  0  0
   20.9598  -12.2177   21.0176 H   0  0  0  0  0  0  0  0  0  0  0  0
   16.0808  -16.2908   23.9552 H   0  0  0  0  0  0  0  0  0  0  0  0
   17.4290  -14.4255   25.1752 H   0  0  0  0  0  0  0  0  0  0  0  0
   18.0251  -16.1145   25.0379 H   0  0  0  0  0  0  0  0  0  0  0  0
   14.5481   -9.2852   19.8407 H   0  0  0  0  0  0  0  0  0  0  0  0
   14.2766  -11.0192   19.4581 H   0  0  0  0  0  0  0  0  0  0  0  0
   20.0979  -14.0284   22.1819 H   0  0  0  0  0  0  0  0  0  0  0  0
   19.3229  -14.7190   20.7159 H   0  0  0  0  0  0  0  0  0  0  0  0
   18.9448  -12.6963   25.5998 H   0  0  0  0  0  0  0  0  0  0  0  0
   21.2623  -11.8379   25.7873 H   0  0  0  0  0  0  0  0  0  0  0  0
   11.1119  -12.4189   22.7118 H   0  0  0  0  0  0  0  0  0  0  0  0
   23.1778  -13.2809   25.1216 H   0  0  0  0  0  0  0  0  0  0  0  0
   10.7874  -10.4287   24.1641 H   0  0  0  0  0  0  0  0  0  0  0  0
   22.7626  -15.5979   24.3161 H   0  0  0  0  0  0  0  0  0  0  0  0
   20.4336  -16.4419   24.0914 H   0  0  0  0  0  0  0  0  0  0  0  0
   13.9631   -8.4011   22.0801 H   0  0  0  0  0  0  0  0  0  0  0  0
  1  2  1  0  0  0  0
  1 14  1  0  0  0  0
  1  3  1  0  0  0  0
  2  5  1  0  0  0  0
  2  7  1  0  0  0  0
  3  8  1  0  0  0  0
  3  4  1  0  0  0  0
  5  6  2  0  0  0  0
  5  9  1  0  0  0  0
  7 10  1  0  0  0  0
  8 11  2  0  0  0  0
  8 12  1  0  0  0  0
  9 13  1  0  0  0  0
 10 14  1  0  0  0  0
 12 15  1  0  0  0  0
 13 16  1  0  0  0  0
 15 17  2  0  0  0  0
 15 25  1  0  0  0  0
 16 18  2  0  0  0  0
 16 26  1  0  0  0  0
 17 19  1  0  0  0  0
 18 20  1  0  0  0  0
 18 27  1  0  0  0  0
 19 21  2  0  0  0  0
 20 22  2  0  0  0  0
 21 23  1  0  0  0  0
 22 24  1  0  0  0  0
 23 25  2  0  0  0  0
 24 26  2  0  0  0  0
 24 28  1  0  0  0  0
  2 29  1  0  0  0  0
  3 30  1  0  0  0  0
  4 31  1  0  0  0  0
  7 32  1  0  0  0  0
  7 33  1  0  0  0  0
  9 34  1  0  0  0  0
 10 35  1  0  0  0  0
 10 36  1  0  0  0  0
 11 37  1  0  0  0  0
 12 38  1  0  0  0  0
 12 39  1  0  0  0  0
 13 40  1  0  0  0  0
 13 41  1  0  0  0  0
 14 42  1  0  0  0  0
 14 43  1  0  0  0  0
 17 44  1  0  0  0  0
 19 45  1  0  0  0  0
 20 46  1  0  0  0  0
 21 47  1  0  0  0  0
 22 48  1  0  0  0  0
 23 49  1  0  0  0  0
 25 50  1  0  0  0  0
 26 51  1  0  0  0  0
M  END
> <r_user_dG.exp>
-9.18

$$$$
6a
  -OEChem-05162309453D
 Structure written by MMmdl.
 51 53  0     1  0  0  0  0  0999 V2000
   18.2157  -13.2003   21.6863 N   0  0  0  0  0  0  0  0  0  0  0  0
   18.0087  -11.9014   21.0167 C   0  0  2  0  0  0  0  0  0  0  0  0
   17.3504  -13.7474   22.5740 C   0  0  0  0  0  0  0  0  0  0  0  0
   16.3550  -13.1366   22.9677 O   0  0  0  0  0  0  0  0  0  0  0  0
   16.6062  -11.7346   20.3818 C   0  0  0  0  0  0  0  0  0  0  0  0
   16.1572  -12.6195   19.6529 O   0  0  0  0  0  0  0  0  0  0  0  0
   19.1142  -11.8355   19.9533 C   0  0  0  0  0  0  0  0  0  0  0  0
   17.6071  -15.1533   23.1501 C   0  0  2  0  0  0  0  0  0  0  0  0
   15.9284  -10.6140   20.6664 N   0  0  0  0  0  0  0  0  0  0  0  0
   20.2121  -12.7673   20.4270 C   0  0  0  0  0  0  0  0  0  0  0  0
   16.3676  -15.9435   23.0624 N   0  0  0  0  0  0  0  0  0  0  0  0
   18.0947  -15.1005   24.6172 C   0  0  0  0  0  0  0  0  0  0  0  0
   14.5615  -10.3074   20.2469 C   0  0  0  0  0  0  0  0  0  0  0  0
   19.4961  -13.7972   21.2906 C   0  0  0  0  0  0  0  0  0  0  0  0
   19.5224  -14.6112   24.7960 C   0  0  0  0  0  0  0  0  0  0  0  0
   13.5216  -10.3907   21.3623 C   0  0  0  0  0  0  0  0  0  0  0  0
   19.7728  -13.3212   25.2992 C   0  0  0  0  0  0  0  0  0  0  0  0
   12.7061  -11.5351   21.5535 C   0  0  0  0  0  0  0  0  0  0  0  0
   21.0848  -12.8362   25.4155 C   0  0  0  0  0  0  0  0  0  0  0  0
   11.7284  -11.5437   22.5691 C   0  0  0  0  0  0  0  0  0  0  0  0
   22.1672  -13.6542   25.0464 C   0  0  0  0  0  0  0  0  0  0  0  0
   11.5492  -10.4209   23.3986 C   0  0  0  0  0  0  0  0  0  0  0  0
   21.9309  -14.9609   24.5786 C   0  0  0  0  0  0  0  0  0  0  0  0
   12.3658   -9.2886   23.2270 C   0  0  0  0  0  0  0  0  0  0  0  0
   20.6114  -15.4396   24.4521 C   0  0  0  0  0  0  0  0  0  0  0  0
   13.3428   -9.2754   22.2113 C   0  0  0  0  0  0  0  0  0  0  0  0
   12.8565  -12.9335   20.5533 Cl  0  0  0  0  0  0  0  0  0  0  0  0
   12.1952   -7.9330   24.2824 Cl  0  0  0  0  0  0  0  0  0  0  0  0
   18.1649  -11.0868   21.7392 H   0  0  0  0  0  0  0  0  0  0  0  0
   16.7676  -14.1838   21.7494 H   0  0  0  0  0  0  0  0  0  0  0  0
   15.8731  -13.6780   23.5818 H   0  0  0  0  0  0  0  0  0  0  0  0
   15.2941  -12.3691   19.3449 H   0  0  0  0  0  0  0  0  0  0  0  0
   18.7264  -12.1673   18.9789 H   0  0  0  0  0  0  0  0  0  0  0  0
   19.4976  -10.8083   19.8648 H   0  0  0  0  0  0  0  0  0  0  0  0
   20.7051  -13.2529   19.5719 H   0  0  0  0  0  0  0  0  0  0  0  0
   20.9598  -12.2177   21.0176 H   0  0  0  0  0  0  0  0  0  0  0  0
   16.0808  -16.2908   23.9552 H   0  0  0  0  0  0  0  0  0  0  0  0
   17.4290  -14.4255   25.1752 H   0  0  0  0  0  0  0  0  0  0  0  0
   18.0251  -16.1145   25.0379 H   0  0  0  0  0  0  0  0  0  0  0  0
   14.5481   -9.2852   19.8407 H   0  0  0  0  0  0  0  0  0  0  0  0
   14.2766  -11.0192   19.4581 H   0  0  0  0  0  0  0  0  0  0  0  0
   20.0979  -14.0284   22.1819 H   0  0  0  0  0  0  0  0  0  0  0  0
   19.3229  -14.7190   20.7159 H   0  0  0  0  0  0  0  0  0  0  0  0
   18.9448  -12.6963   25.5998 H   0  0  0  0  0  0  0  0  0  0  0  0
   21.2623  -11.8379   25.7873 H   0  0  0  0  0  0  0  0  0  0  0  0
   11.1119  -12.4189   22.7118 H   0  0  0  0  0  0  0  0  0  0  0  0
   23.1778  -13.2809   25.1216 H   0  0  0  0  0  0  0  0  0  0  0  0
   10.7874  -10.4287   24.1641 H   0  0  0  0  0  0  0  0  0  0  0  0
   22.7626  -15.5979   24.3161 H   0  0  0  0  0  0  0  0  0  0  0  0
   20.4336  -16.4419   24.0914 H   0  0  0  0  0  0  0  0  0  0  0  0
   13.9631   -8.4011   22.0801 H   0  0  0  0  0  0  0  0  0  0  0  0
  1  2  1  0  0  0  0
  1 14  1  0  0  0  0
  1  3  1  0  0  0  0
  2  5  1  0  0  0  0
  2  7  1  0  0  0  0
  3  8  1  0  0  0  0
  3  4  1  0  0  0  0
  5  6  1  0  0  0  0
  5  9  2  0  0  0  0
  7 10  1  0  0  0  0
  8 11  2  0  0  0  0
  8 12  1  0  0  0  0
  9 13  1  0  0  0  0
 10 14  1  0  0  0  0
 12 15  1  0  0  0  0
 13 16  1  0  0  0  0
 15 17  2  0  0  0  0
 15 25  1  0  0  0  0
 16 18  2  0  0  0  0
 16 26  1  0  0  0  0
 17 19  1  0  0  0  0
 18 20  1  0  0  0  0
 18 27  1  0  0  0  0
 19 21  2  0  0  0  0
 20 22  2  0  0  0  0
 21 23  1  0  0  0  0
 22 24  1  0  0  0  0
 23 25  2  0  0  0  0
 24 26  2  0  0  0  0
 24 28  1  0  0  0  0
  2 29  1  0  0  0  0
  3 30  1  0  0  0  0
  4 31  1  0  0  0  0
  6 32  1  0  0  0  0
  7 33  1  0  0  0  0
  7 34  1  0  0  0  0
 10 35  1  0  0  0  0
 10 36  1  0  0  0  0
 11 37  1  0  0  0  0
 12 38  1  0  0  0  0
 12 39  1  0  0  0  0
 13 40  1  0  0  0  0
 13 41  1  0  0  0  0
 14 42  1  0  0  0  0
 14 43  1  0  0  0  0
 17 44  1  0  0  0  0
 19 45  1  0  0  0  0
 20 46  1  0  0  0  0
 21 47  1  0  0  0  0
 22 48  1  0  0  0  0
 23 49  1  0  0  0  0
 25 50  1  0  0  0  0
 26 51  1  0  0  0  0
M  END
> <r_user_dG.exp>
-9.18

$$$$
6a
  -OEChem-05162309453D
 Structure written by MMmdl.
 51 53  0     1  0  0  0  0  0999 V2000
   18.2157  -13.2003   21.6863 N   0  0  0  0  0  0  0  0  0  0  0  0
   18.0087  -11.9014   21.0167 C   0  0  2  0  0  0  0  0  0  0  0  0
   17.3504  -13.7474   22.5740 C   0  0  0  0  0  0  0  0  0  0  0  0
   16.3550  -13.1366   22.9677 O   0  0  0  0  0  0  0  0  0  0  0  0
   16.6062  -11.7346   20.3818 C   0  0  0  0  0  0  0  0  0  0  0  0
   16.1572  -12.6195   19.6529 O   0  0  0  0  0  0  0  0  0  0  0  0
   19.1142  -11.8355   19.9533 C   0  0  0  0  0  0  0  0  0  0  0  0
   17.6071  -15.1533   23.1501 C   0  0  2  0  0  0  0  0  0  0  0  0
   15.9284  -10.6140   20.6664 N   0  0  0  0  0  0  0  0  0  0  0  0
   20.2121  -12.7673   20.4270 C   0  0  0  0  0  0  0  0  0  0  0  0
   16.3676  -15.9435   23.0624 N   0  0  0  0  0  0  0  0  0  0  0  0
   18.0947  -15.1005   24.6172 C   0  0  0  0  0  0  0  0  0  0  0  0
   14.5615  -10.3074   20.2469 C   0  0  0  0  0  0  0  0  0  0  0  0
   19.4961  -13.7972   21.2906 C   0  0  0  0  0  0  0  0  0  0  0  0
   19.5224  -14.6112   24.7960 C   0  0  0  0  0  0  0  0  0  0  0  0
   13.5216  -10.3907   21.3623 C   0  0  0  0  0  0  0  0  0  0  0  0
   19.7728  -13.3212   25.2992 C   0  0  0  0  0  0  0  0  0  0  0  0
   12.7061  -11.5351   21.5535 C   0  0  0  0  0  0  0  0  0  0  0  0
   21.0848  -12.8362   25.4155 C   0  0  0  0  0  0  0  0  0  0  0  0
   11.7284  -11.5437   22.5691 C   0  0  0  0  0  0  0  0  0  0  0  0
   22.1672  -13.6542   25.0464 C   0  0  0  0  0  0  0  0  0  0  0  0
   11.5492  -10.4209   23.3986 C   0  0  0  0  0  0  0  0  0  0  0  0
   21.9309  -14.9609   24.5786 C   0  0  0  0  0  0  0  0  0  0  0  0
   12.3658   -9.2886   23.2270 C   0  0  0  0  0  0  0  0  0  0  0  0
   20.6114  -15.4396   24.4521 C   0  0  0  0  0  0  0  0  0  0  0  0
   13.3428   -9.2754   22.2113 C   0  0  0  0  0  0  0  0  0  0  0  0
   12.8565  -12.9335   20.5533 Cl  0  0  0  0  0  0  0  0  0  0  0  0
   12.1952   -7.9330   24.2824 Cl  0  0  0  0  0  0  0  0  0  0  0  0
   18.1649  -11.0868   21.7392 H   0  0  0  0  0  0  0  0  0  0  0  0
   15.8731  -13.6780   23.5818 H   0  0  0  0  0  0  0  0  0  0  0  0
   18.7264  -12.1673   18.9789 H   0  0  0  0  0  0  0  0  0  0  0  0
   19.4976  -10.8083   19.8648 H   0  0  0  0  0  0  0  0  0  0  0  0
   16.4005   -9.9246   21.2158 H   0  0  0  0  0  0  0  0  0  0  0  0
   20.7051  -13.2529   19.5719 H   0  0  0  0  0  0  0  0  0  0  0  0
   20.9598  -12.2177   21.0176 H   0  0  0  0  0  0  0  0  0  0  0  0
   16.5275  -16.8577   23.4349 H   0  0  0  0  0  0  0  0  0  0  0  0
   15.6463  -15.4913   23.5871 H   0  0  0  0  0  0  0  0  0  0  0  0
   17.4290  -14.4255   25.1752 H   0  0  0  0  0  0  0  0  0  0  0  0
   18.0251  -16.1145   25.0379 H   0  0  0  0  0  0  0  0  0  0  0  0
   14.5481   -9.2852   19.8407 H   0  0  0  0  0  0  0  0  0  0  0  0
   14.2766  -11.0192   19.4581 H   0  0  0  0  0  0  0  0  0  0  0  0
   20.0979  -14.0284   22.1819 H   0  0  0  0  0  0  0  0  0  0  0  0
   19.3229  -14.7190   20.7159 H   0  0  0  0  0  0  0  0  0  0  0  0
   18.9448  -12.6963   25.5998 H   0  0  0  0  0  0  0  0  0  0  0  0
   21.2623  -11.8379   25.7873 H   0  0  0  0  0  0  0  0  0  0  0  0
   11.1119  -12.4189   22.7118 H   0  0  0  0  0  0  0  0  0  0  0  0
   23.1778  -13.2809   25.1216 H   0  0  0  0  0  0  0  0  0  0  0  0
   10.7874  -10.4287   24.1641 H   0  0  0  0  0  0  0  0  0  0  0  0
   22.7626  -15.5979   24.3161 H   0  0  0  0  0  0  0  0  0  0  0  0
   20.4336  -16.4419   24.0914 H   0  0  0  0  0  0  0  0  0  0  0  0
   13.9631   -8.4011   22.0801 H   0  0  0  0  0  0  0  0  0  0  0  0
  1  2  1  0  0  0  0
  1 14  1  0  0  0  0
  1  3  1  0  0  0  0
  2  5  1  0  0  0  0
  2  7  1  0  0  0  0
  3  8  2  0  0  0  0
  3  4  1  0  0  0  0
  5  6  2  0  0  0  0
  5  9  1  0  0  0  0
  7 10  1  0  0  0  0
  8 11  1  0  0  0  0
  8 12  1  0  0  0  0
  9 13  1  0  0  0  0
 10 14  1  0  0  0  0
 12 15  1  0  0  0  0
 13 16  1  0  0  0  0
 15 17  2  0  0  0  0
 15 25  1  0  0  0  0
 16 18  2  0  0  0  0
 16 26  1  0  0  0  0
 17 19  1  0  0  0  0
 18 20  1  0  0  0  0
 18 27  1  0  0  0  0
 19 21  2  0  0  0  0
 20 22  2  0  0  0  0
 21 23  1  0  0  0  0
 22 24  1  0  0  0  0
 23 25  2  0  0  0  0
 24 26  2  0  0  0  0
 24 28  1  0  0  0  0
  2 29  1  0  0  0  0
  4 30  1  0  0  0  0
  7 31  1  0  0  0  0
  7 32  1  0  0  0  0
  9 33  1  0  0  0  0
 10 34  1  0  0  0  0
 10 35  1  0  0  0  0
 11 36  1  0  0  0  0
 11 37  1  0  0  0  0
 12 38  1  0  0  0  0
 12 39  1  0  0  0  0
 13 40  1  0  0  0  0
 13 41  1  0  0  0  0
 14 42  1  0  0  0  0
 14 43  1  0  0  0  0
 17 44  1  0  0  0  0
 19 45  1  0  0  0  0
 20 46  1  0  0  0  0
 21 47  1  0  0  0  0
 22 48  1  0  0  0  0
 23 49  1  0  0  0  0
 25 50  1  0  0  0  0
 26 51  1  0  0  0  0
M  END
> <r_user_dG.exp>
-9.18

$$$$
6a
  -OEChem-05162309453D
 Structure written by MMmdl.
 51 53  0     1  0  0  0  0  0999 V2000
   18.2157  -13.2003   21.6863 N   0  0  0  0  0  0  0  0  0  0  0  0
   18.0087  -11.9014   21.0167 C   0  0  2  0  0  0  0  0  0  0  0  0
   17.3504  -13.7474   22.5740 C   0  0  0  0  0  0  0  0  0  0  0  0
   16.3550  -13.1366   22.9677 O   0  0  0  0  0  0  0  0  0  0  0  0
   16.6062  -11.7346   20.3818 C   0  0  0  0  0  0  0  0  0  0  0  0
   16.1572  -12.6195   19.6529 O   0  0  0  0  0  0  0  0  0  0  0  0
   19.1142  -11.8355   19.9533 C   0  0  0  0  0  0  0  0  0  0  0  0
   17.6071  -15.1533   23.1501 C   0  0  2  0  0  0  0  0  0  0  0  0
   15.9284  -10.6140   20.6664 N   0  0  0  0  0  0  0  0  0  0  0  0
   20.2121  -12.7673   20.4270 C   0  0  0  0  0  0  0  0  0  0  0  0
   16.3676  -15.9435   23.0624 N   0  0  0  0  0  0  0  0  0  0  0  0
   18.0947  -15.1005   24.6172 C   0  0  0  0  0  0  0  0  0  0  0  0
   14.5615  -10.3074   20.2469 C   0  0  0  0  0  0  0  0  0  0  0  0
   19.4961  -13.7972   21.2906 C   0  0  0  0  0  0  0  0  0  0  0  0
   19.5224  -14.6112   24.7960 C   0  0  0  0  0  0  0  0  0  0  0  0
   13.5216  -10.3907   21.3623 C   0  0  0  0  0  0  0  0  0  0  0  0
   19.7728  -13.3212   25.2992 C   0  0  0  0  0  0  0  0  0  0  0  0
   12.7061  -11.5351   21.5535 C   0  0  0  0  0  0  0  0  0  0  0  0
   21.0848  -12.8362   25.4155 C   0  0  0  0  0  0  0  0  0  0  0  0
   11.7284  -11.5437   22.5691 C   0  0  0  0  0  0  0  0  0  0  0  0
   22.1672  -13.6542   25.0464 C   0  0  0  0  0  0  0  0  0  0  0  0
   11.5492  -10.4209   23.3986 C   0  0  0  0  0  0  0  0  0  0  0  0
   21.9309  -14.9609   24.5786 C   0  0  0  0  0  0  0  0  0  0  0  0
   12.3658   -9.2886   23.2270 C   0  0  0  0  0  0  0  0  0  0  0  0
   20.6114  -15.4396   24.4521 C   0  0  0  0  0  0  0  0  0  0  0  0
   13.3428   -9.2754   22.2113 C   0  0  0  0  0  0  0  0  0  0  0  0
   12.8565  -12.9335   20.5533 Cl  0  0  0  0  0  0  0  0  0  0  0  0
   12.1952   -7.9330   24.2824 Cl  0  0  0  0  0  0  0  0  0  0  0  0
   18.1649  -11.0868   21.7392 H   0  0  0  0  0  0  0  0  0  0  0  0
   15.8731  -13.6780   23.5818 H   0  0  0  0  0  0  0  0  0  0  0  0
   15.2941  -12.3691   19.3449 H   0  0  0  0  0  0  0  0  0  0  0  0
   18.7264  -12.1673   18.9789 H   0  0  0  0  0  0  0  0  0  0  0  0
   19.4976  -10.8083   19.8648 H   0  0  0  0  0  0  0  0  0  0  0  0
   20.7051  -13.2529   19.5719 H   0  0  0  0  0  0  0  0  0  0  0  0
   20.9598  -12.2177   21.0176 H   0  0  0  0  0  0  0  0  0  0  0  0
   16.5275  -16.8577   23.4349 H   0  0  0  0  0  0  0  0  0  0  0  0
   15.6463  -15.4913   23.5871 H   0  0  0  0  0  0  0  0  0  0  0  0
   17.4290  -14.4255   25.1752 H   0  0  0  0  0  0  0  0  0  0  0  0
   18.0251  -16.1145   25.0379 H   0  0  0  0  0  0  0  0  0  0  0  0
   14.5481   -9.2852   19.8407 H   0  0  0  0  0  0  0  0  0  0  0  0
   14.2766  -11.0192   19.4581 H   0  0  0  0  0  0  0  0  0  0  0  0
   20.0979  -14.0284   22.1819 H   0  0  0  0  0  0  0  0  0  0  0  0
   19.3229  -14.7190   20.7159 H   0  0  0  0  0  0  0  0  0  0  0  0
   18.9448  -12.6963   25.5998 H   0  0  0  0  0  0  0  0  0  0  0  0
   21.2623  -11.8379   25.7873 H   0  0  0  0  0  0  0  0  0  0  0  0
   11.1119  -12.4189   22.7118 H   0  0  0  0  0  0  0  0  0  0  0  0
   23.1778  -13.2809   25.1216 H   0  0  0  0  0  0  0  0  0  0  0  0
   10.7874  -10.4287   24.1641 H   0  0  0  0  0  0  0  0  0  0  0  0
   22.7626  -15.5979   24.3161 H   0  0  0  0  0  0  0  0  0  0  0  0
   20.4336  -16.4419   24.0914 H   0  0  0  0  0  0  0  0  0  0  0  0
   13.9631   -8.4011   22.0801 H   0  0  0  0  0  0  0  0  0  0  0  0
  1  2  1  0  0  0  0
  1 14  1  0  0  0  0
  1  3  1  0  0  0  0
  2  5  1  0  0  0  0
  2  7  1  0  0  0  0
  3  8  2  0  0  0  0
  3  4  1  0  0  0  0
  5  6  1  0  0  0  0
  5  9  2  0  0  0  0
  7 10  1  0  0  0  0
  8 11  1  0  0  0  0
  8 12  1  0  0  0  0
  9 13  1  0  0  0  0
 10 14  1  0  0  0  0
 12 15  1  0  0  0  0
 13 16  1  0  0  0  0
 15 17  2  0  0  0  0
 15 25  1  0  0  0  0
 16 18  2  0  0  0  0
 16 26  1  0  0  0  0
 17 19  1  0  0  0  0
 18 20  1  0  0  0  0
 18 27  1  0  0  0  0
 19 21  2  0  0  0  0
 20 22  2  0  0  0  0
 21 23  1  0  0  0  0
 22 24  1  0  0  0  0
 23 25  2  0  0  0  0
 24 26  2  0  0  0  0
 24 28  1  0  0  0  0
  2 29  1  0  0  0  0
  4 30  1  0  0  0  0
  6 31  1  0  0  0  0
  7 32  1  0  0  0  0
  7 33  1  0  0  0  0
 10 34  1  0  0  0  0
 10 35  1  0  0  0  0
 11 36  1  0  0  0  0
 11 37  1  0  0  0  0
 12 38  1  0  0  0  0
 12 39  1  0  0  0  0
 13 40  1  0  0  0  0
 13 41  1  0  0  0  0
 14 42  1  0  0  0  0
 14 43  1  0  0  0  0
 17 44  1  0  0  0  0
 19 45  1  0  0  0  0
 20 46  1  0  0  0  0
 21 47  1  0  0  0  0
 22 48  1  0  0  0  0
 23 49  1  0  0  0  0
 25 50  1  0  0  0  0
 26 51  1  0  0  0  0
M  END
> <r_user_dG.exp>
-9.18

$$$$
