7a
  -OEChem-05162309453D
 Structure written by MMmdl.
 57 59  0     1  0  0  0  0  0999 V2000
   18.3714  -13.1884   21.6150 N   0  0  0  0  0  0  0  0  0  0  0  0
   18.2376  -11.8958   20.9137 C   0  0  2  0  0  0  0  0  0  0  0  0
   17.4535  -13.6998   22.4744 C   0  0  0  0  0  0  0  0  0  0  0  0
   16.4564  -13.0653   22.8232 O   0  0  0  0  0  0  0  0  0  0  0  0
   16.8822  -11.7251   20.1933 C   0  0  0  0  0  0  0  0  0  0  0  0
   16.5597  -12.5203   19.3090 O   0  0  0  0  0  0  0  0  0  0  0  0
   19.3957  -11.8806   19.9002 C   0  0  0  0  0  0  0  0  0  0  0  0
   17.6438  -15.1075   23.0722 C   0  0  2  0  0  0  0  0  0  0  0  0
   16.1070  -10.7041   20.5768 N   0  0  0  0  0  0  0  0  0  0  0  0
   20.4400  -12.8262   20.4504 C   0  0  0  0  0  0  0  0  0  0  0  0
   16.3782  -15.8524   22.9564 N   0  0  0  0  0  0  0  0  0  0  0  0
   18.0887  -15.0599   24.5536 C   0  0  0  0  0  0  0  0  0  0  0  0
   14.7606  -10.4180   20.0946 C   0  0  0  0  0  0  0  0  0  0  0  0
   19.6520  -13.8246   21.2876 C   0  0  0  0  0  0  0  0  0  0  0  0
   19.5204  -14.6005   24.7756 C   0  0  0  0  0  0  0  0  0  0  0  0
   13.6484  -10.9027   21.0223 C   0  0  0  0  0  0  0  0  0  0  0  0
   19.7809  -13.3155   25.2861 C   0  0  0  0  0  0  0  0  0  0  0  0
   13.1225  -12.2215   20.9619 C   0  0  0  0  0  0  0  0  0  0  0  0
   21.0968  -12.8490   25.4254 C   0  0  0  0  0  0  0  0  0  0  0  0
   12.0912  -12.6033   21.8422 C   0  0  0  0  0  0  0  0  0  0  0  0
   22.1731  -13.6821   25.0741 C   0  0  0  0  0  0  0  0  0  0  0  0
   11.5685  -11.6941   22.7743 C   0  0  0  0  0  0  0  0  0  0  0  0
   21.9269  -14.9875   24.6077 C   0  0  0  0  0  0  0  0  0  0  0  0
   12.0837  -10.3888   22.8432 C   0  0  0  0  0  0  0  0  0  0  0  0
   20.6031  -15.4477   24.4583 C   0  0  0  0  0  0  0  0  0  0  0  0
   13.1193   -9.9960   21.9695 C   0  0  0  0  0  0  0  0  0  0  0  0
   13.6358  -13.2672   19.9913 C   0  0  0  0  0  0  0  0  0  0  0  0
   11.5359   -9.4383   23.8829 C   0  0  0  0  0  0  0  0  0  0  0  0
   18.3718  -11.0678   21.6253 H   0  0  0  0  0  0  0  0  0  0  0  0
   19.0472  -12.2262   18.9157 H   0  0  0  0  0  0  0  0  0  0  0  0
   19.8095  -10.8657   19.8072 H   0  0  0  0  0  0  0  0  0  0  0  0
   18.4233  -15.6262   22.4948 H   0  0  0  0  0  0  0  0  0  0  0  0
   16.4866  -10.0783   21.2582 H   0  0  0  0  0  0  0  0  0  0  0  0
   20.9698  -13.3375   19.6332 H   0  0  0  0  0  0  0  0  0  0  0  0
   21.1652  -12.2832   21.0744 H   0  0  0  0  0  0  0  0  0  0  0  0
   16.4931  -16.7677   23.3423 H   0  0  0  0  0  0  0  0  0  0  0  0
   15.6596  -15.3681   23.4556 H   0  0  0  0  0  0  0  0  0  0  0  0
   17.4209  -14.3692   25.0892 H   0  0  0  0  0  0  0  0  0  0  0  0
   17.9847  -16.0708   24.9746 H   0  0  0  0  0  0  0  0  0  0  0  0
   14.6607   -9.3290   19.9756 H   0  0  0  0  0  0  0  0  0  0  0  0
   14.6327  -10.9069   19.1176 H   0  0  0  0  0  0  0  0  0  0  0  0
   20.2026  -14.0632   22.2095 H   0  0  0  0  0  0  0  0  0  0  0  0
   19.4803  -14.7473   20.7139 H   0  0  0  0  0  0  0  0  0  0  0  0
   18.9569  -12.6797   25.5746 H   0  0  0  0  0  0  0  0  0  0  0  0
   21.2821  -11.8536   25.8011 H   0  0  0  0  0  0  0  0  0  0  0  0
   11.6980  -13.6083   21.7991 H   0  0  0  0  0  0  0  0  0  0  0  0
   23.1873  -13.3214   25.1618 H   0  0  0  0  0  0  0  0  0  0  0  0
   10.7717  -11.9970   23.4375 H   0  0  0  0  0  0  0  0  0  0  0  0
   22.7541  -15.6376   24.3639 H   0  0  0  0  0  0  0  0  0  0  0  0
   20.4173  -16.4497   24.1006 H   0  0  0  0  0  0  0  0  0  0  0  0
   13.5123   -8.9916   22.0247 H   0  0  0  0  0  0  0  0  0  0  0  0
   14.4622  -13.8251   20.4558 H   0  0  0  0  0  0  0  0  0  0  0  0
   12.8219  -13.9620   19.7368 H   0  0  0  0  0  0  0  0  0  0  0  0
   13.9956  -12.7732   19.0767 H   0  0  0  0  0  0  0  0  0  0  0  0
   12.1158   -9.5370   24.8124 H   0  0  0  0  0  0  0  0  0  0  0  0
   11.6116   -8.4056   23.5116 H   0  0  0  0  0  0  0  0  0  0  0  0
   10.4813   -9.6802   24.0813 H   0  0  0  0  0  0  0  0  0  0  0  0
  1  2  1  0  0  0  0
  1 14  1  0  0  0  0
  1  3  1  0  0  0  0
  2  5  1  0  0  0  0
  2  7  1  0  0  0  0
  3  8  1  0  0  0  0
  3  4  2  0  0  0  0
  5  6  2  0  0  0  0
  5  9  1  0  0  0  0
  7 10  1  0  0  0  0
  8 11  1  0  0  0  0
  8 12  1  0  0  0  0
  9 13  1  0  0  0  0
 10 14  1  0  0  0  0
 12 15  1  0  0  0  0
 13 16  1  0  0  0  0
 15 17  2  0  0  0  0
 15 25  1  0  0  0  0
 16 18  2  0  0  0  0
 16 26  1  0  0  0  0
 17 19  1  0  0  0  0
 18 20  1  0  0  0  0
 18 27  1  0  0  0  0
 19 21  2  0  0  0  0
 20 22  2  0  0  0  0
 21 23  1  0  0  0  0
 22 24  1  0  0  0  0
 23 25  2  0  0  0  0
 24 26  2  0  0  0  0
 24 28  1  0  0  0  0
  2 29  1  0  0  0  0
  7 30  1  0  0  0  0
  7 31  1  0  0  0  0
  8 32  1  0  0  0  0
  9 33  1  0  0  0  0
 10 34  1  0  0  0  0
 10 35  1  0  0  0  0
 11 36  1  0  0  0  0
 11 37  1  0  0  0  0
 12 38  1  0  0  0  0
 12 39  1  0  0  0  0
 13 40  1  0  0  0  0
 13 41  1  0  0  0  0
 14 42  1  0  0  0  0
 14 43  1  0  0  0  0
 17 44  1  0  0  0  0
 19 45  1  0  0  0  0
 20 46  1  0  0  0  0
 21 47  1  0  0  0  0
 22 48  1  0  0  0  0
 23 49  1  0  0  0  0
 25 50  1  0  0  0  0
 26 51  1  0  0  0  0
 27 52  1  0  0  0  0
 27 53  1  0  0  0  0
 27 54  1  0  0  0  0
 28 55  1  0  0  0  0
 28 56  1  0  0  0  0
 28 57  1  0  0  0  0
M  END
> <r_user_dG.exp>
-8.22

$$$$
7a
  -OEChem-05162309453D
 Structure written by MMmdl.
 57 59  0     1  0  0  0  0  0999 V2000
   18.3714  -13.1884   21.6150 N   0  0  0  0  0  0  0  0  0  0  0  0
   18.2376  -11.8958   20.9137 C   0  0  2  0  0  0  0  0  0  0  0  0
   17.4535  -13.6998   22.4744 C   0  0  0  0  0  0  0  0  0  0  0  0
   16.4564  -13.0653   22.8232 O   0  0  0  0  0  0  0  0  0  0  0  0
   16.8822  -11.7251   20.1933 C   0  0  0  0  0  0  0  0  0  0  0  0
   16.5597  -12.5203   19.3090 O   0  0  0  0  0  0  0  0  0  0  0  0
   19.3957  -11.8806   19.9002 C   0  0  0  0  0  0  0  0  0  0  0  0
   17.6438  -15.1075   23.0722 C   0  0  2  0  0  0  0  0  0  0  0  0
   16.1070  -10.7041   20.5768 N   0  0  0  0  0  0  0  0  0  0  0  0
   20.4400  -12.8262   20.4504 C   0  0  0  0  0  0  0  0  0  0  0  0
   16.3782  -15.8524   22.9564 N   0  0  0  0  0  0  0  0  0  0  0  0
   18.0887  -15.0599   24.5536 C   0  0  0  0  0  0  0  0  0  0  0  0
   14.7606  -10.4180   20.0946 C   0  0  0  0  0  0  0  0  0  0  0  0
   19.6520  -13.8246   21.2876 C   0  0  0  0  0  0  0  0  0  0  0  0
   19.5204  -14.6005   24.7756 C   0  0  0  0  0  0  0  0  0  0  0  0
   13.6484  -10.9027   21.0223 C   0  0  0  0  0  0  0  0  0  0  0  0
   19.7809  -13.3155   25.2861 C   0  0  0  0  0  0  0  0  0  0  0  0
   13.1225  -12.2215   20.9619 C   0  0  0  0  0  0  0  0  0  0  0  0
   21.0968  -12.8490   25.4254 C   0  0  0  0  0  0  0  0  0  0  0  0
   12.0912  -12.6033   21.8422 C   0  0  0  0  0  0  0  0  0  0  0  0
   22.1731  -13.6821   25.0741 C   0  0  0  0  0  0  0  0  0  0  0  0
   11.5685  -11.6941   22.7743 C   0  0  0  0  0  0  0  0  0  0  0  0
   21.9269  -14.9875   24.6077 C   0  0  0  0  0  0  0  0  0  0  0  0
   12.0837  -10.3888   22.8432 C   0  0  0  0  0  0  0  0  0  0  0  0
   20.6031  -15.4477   24.4583 C   0  0  0  0  0  0  0  0  0  0  0  0
   13.1193   -9.9960   21.9695 C   0  0  0  0  0  0  0  0  0  0  0  0
   13.6358  -13.2672   19.9913 C   0  0  0  0  0  0  0  0  0  0  0  0
   11.5359   -9.4383   23.8829 C   0  0  0  0  0  0  0  0  0  0  0  0
   18.3718  -11.0678   21.6253 H   0  0  0  0  0  0  0  0  0  0  0  0
   15.7062  -12.2836   18.9655 H   0  0  0  0  0  0  0  0  0  0  0  0
   19.0472  -12.2262   18.9157 H   0  0  0  0  0  0  0  0  0  0  0  0
   19.8095  -10.8657   19.8072 H   0  0  0  0  0  0  0  0  0  0  0  0
   18.4233  -15.6262   22.4948 H   0  0  0  0  0  0  0  0  0  0  0  0
   20.9698  -13.3375   19.6332 H   0  0  0  0  0  0  0  0  0  0  0  0
   21.1652  -12.2832   21.0744 H   0  0  0  0  0  0  0  0  0  0  0  0
   16.4931  -16.7677   23.3423 H   0  0  0  0  0  0  0  0  0  0  0  0
   15.6596  -15.3681   23.4556 H   0  0  0  0  0  0  0  0  0  0  0  0
   17.4209  -14.3692   25.0892 H   0  0  0  0  0  0  0  0  0  0  0  0
   17.9847  -16.0708   24.9746 H   0  0  0  0  0  0  0  0  0  0  0  0
   14.6607   -9.3290   19.9756 H   0  0  0  0  0  0  0  0  0  0  0  0
   14.6327  -10.9069   19.1176 H   0  0  0  0  0  0  0  0  0  0  0  0
   20.2026  -14.0632   22.2095 H   0  0  0  0  0  0  0  0  0  0  0  0
   19.4803  -14.7473   20.7139 H   0  0  0  0  0  0  0  0  0  0  0  0
   18.9569  -12.6797   25.5746 H   0  0  0  0  0  0  0  0  0  0  0  0
   21.2821  -11.8536   25.8011 H   0  0  0  0  0  0  0  0  0  0  0  0
   11.6980  -13.6083   21.7991 H   0  0  0  0  0  0  0  0  0  0  0  0
   23.1873  -13.3214   25.1618 H   0  0  0  0  0  0  0  0  0  0  0  0
   10.7717  -11.9970   23.4375 H   0  0  0  0  0  0  0  0  0  0  0  0
   22.7541  -15.6376   24.3639 H   0  0  0  0  0  0  0  0  0  0  0  0
   20.4173  -16.4497   24.1006 H   0  0  0  0  0  0  0  0  0  0  0  0
   13.5123   -8.9916   22.0247 H   0  0  0  0  0  0  0  0  0  0  0  0
   14.4622  -13.8251   20.4558 H   0  0  0  0  0  0  0  0  0  0  0  0
   12.8219  -13.9620   19.7368 H   0  0  0  0  0  0  0  0  0  0  0  0
   13.9956  -12.7732   19.0767 H   0  0  0  0  0  0  0  0  0  0  0  0
   12.1158   -9.5370   24.8124 H   0  0  0  0  0  0  0  0  0  0  0  0
   11.6116   -8.4056   23.5116 H   0  0  0  0  0  0  0  0  0  0  0  0
   10.4813   -9.6802   24.0813 H   0  0  0  0  0  0  0  0  0  0  0  0
  1  2  1  0  0  0  0
  1 14  1  0  0  0  0
  1  3  1  0  0  0  0
  2  5  1  0  0  0  0
  2  7  1  0  0  0  0
  3  8  1  0  0  0  0
  3  4  2  0  0  0  0
  5  6  1  0  0  0  0
  5  9  2  0  0  0  0
  7 10  1  0  0  0  0
  8 11  1  0  0  0  0
  8 12  1  0  0  0  0
  9 13  1  0  0  0  0
 10 14  1  0  0  0  0
 12 15  1  0  0  0  0
 13 16  1  0  0  0  0
 15 17  2  0  0  0  0
 15 25  1  0  0  0  0
 16 18  2  0  0  0  0
 16 26  1  0  0  0  0
 17 19  1  0  0  0  0
 18 20  1  0  0  0  0
 18 27  1  0  0  0  0
 19 21  2  0  0  0  0
 20 22  2  0  0  0  0
 21 23  1  0  0  0  0
 22 24  1  0  0  0  0
 23 25  2  0  0  0  0
 24 26  2  0  0  0  0
 24 28  1  0  0  0  0
  2 29  1  0  0  0  0
  6 30  1  0  0  0  0
  7 31  1  0  0  0  0
  7 32  1  0  0  0  0
  8 33  1  0  0  0  0
 10 34  1  0  0  0  0
 10 35  1  0  0  0  0
 11 36  1  0  0  0  0
 11 37  1  0  0  0  0
 12 38  1  0  0  0  0
 12 39  1  0  0  0  0
 13 40  1  0  0  0  0
 13 41  1  0  0  0  0
 14 42  1  0  0  0  0
 14 43  1  0  0  0  0
 17 44  1  0  0  0  0
 19 45  1  0  0  0  0
 20 46  1  0  0  0  0
 21 47  1  0  0  0  0
 22 48  1  0  0  0  0
 23 49  1  0  0  0  0
 25 50  1  0  0  0  0
 26 51  1  0  0  0  0
 27 52  1  0  0  0  0
 27 53  1  0  0  0  0
 27 54  1  0  0  0  0
 28 55  1  0  0  0  0
 28 56  1  0  0  0  0
 28 57  1  0  0  0  0
M  END
> <r_user_dG.exp>
-8.22

$$$$
7a
  -OEChem-05162309453D
 Structure written by MMmdl.
 57 59  0     1  0  0  0  0  0999 V2000
   18.3714  -13.1884   21.6150 N   0  0  0  0  0  0  0  0  0  0  0  0
   18.2376  -11.8958   20.9137 C   0  0  2  0  0  0  0  0  0  0  0  0
   17.4535  -13.6998   22.4744 C   0  0  0  0  0  0  0  0  0  0  0  0
   16.4564  -13.0653   22.8232 O   0  0  0  0  0  0  0  0  0  0  0  0
   16.8822  -11.7251   20.1933 C   0  0  0  0  0  0  0  0  0  0  0  0
   16.5597  -12.5203   19.3090 O   0  0  0  0  0  0  0  0  0  0  0  0
   19.3957  -11.8806   19.9002 C   0  0  0  0  0  0  0  0  0  0  0  0
   17.6438  -15.1075   23.0722 C   0  0  2  0  0  0  0  0  0  0  0  0
   16.1070  -10.7041   20.5768 N   0  0  0  0  0  0  0  0  0  0  0  0
   20.4400  -12.8262   20.4504 C   0  0  0  0  0  0  0  0  0  0  0  0
   16.3782  -15.8524   22.9564 N   0  0  0  0  0  0  0  0  0  0  0  0
   18.0887  -15.0599   24.5536 C   0  0  0  0  0  0  0  0  0  0  0  0
   14.7606  -10.4180   20.0946 C   0  0  0  0  0  0  0  0  0  0  0  0
   19.6520  -13.8246   21.2876 C   0  0  0  0  0  0  0  0  0  0  0  0
   19.5204  -14.6005   24.7756 C   0  0  0  0  0  0  0  0  0  0  0  0
   13.6484  -10.9027   21.0223 C   0  0  0  0  0  0  0  0  0  0  0  0
   19.7809  -13.3155   25.2861 C   0  0  0  0  0  0  0  0  0  0  0  0
   13.1225  -12.2215   20.9619 C   0  0  0  0  0  0  0  0  0  0  0  0
   21.0968  -12.8490   25.4254 C   0  0  0  0  0  0  0  0  0  0  0  0
   12.0912  -12.6033   21.8422 C   0  0  0  0  0  0  0  0  0  0  0  0
   22.1731  -13.6821   25.0741 C   0  0  0  0  0  0  0  0  0  0  0  0
   11.5685  -11.6941   22.7743 C   0  0  0  0  0  0  0  0  0  0  0  0
   21.9269  -14.9875   24.6077 C   0  0  0  0  0  0  0  0  0  0  0  0
   12.0837  -10.3888   22.8432 C   0  0  0  0  0  0  0  0  0  0  0  0
   20.6031  -15.4477   24.4583 C   0  0  0  0  0  0  0  0  0  0  0  0
   13.1193   -9.9960   21.9695 C   0  0  0  0  0  0  0  0  0  0  0  0
   13.6358  -13.2672   19.9913 C   0  0  0  0  0  0  0  0  0  0  0  0
   11.5359   -9.4383   23.8829 C   0  0  0  0  0  0  0  0  0  0  0  0
   18.3718  -11.0678   21.6253 H   0  0  0  0  0  0  0  0  0  0  0  0
   16.8934  -14.1284   21.6303 H   0  0  0  0  0  0  0  0  0  0  0  0
   15.9402  -13.5906   23.4233 H   0  0  0  0  0  0  0  0  0  0  0  0
   19.0472  -12.2262   18.9157 H   0  0  0  0  0  0  0  0  0  0  0  0
   19.8095  -10.8657   19.8072 H   0  0  0  0  0  0  0  0  0  0  0  0
   16.4866  -10.0783   21.2582 H   0  0  0  0  0  0  0  0  0  0  0  0
   20.9698  -13.3375   19.6332 H   0  0  0  0  0  0  0  0  0  0  0  0
   21.1652  -12.2832   21.0744 H   0  0  0  0  0  0  0  0  0  0  0  0
   16.0537  -16.1798   23.8438 H   0  0  0  0  0  0  0  0  0  0  0  0
   17.4209  -14.3692   25.0892 H   0  0  0  0  0  0  0  0  0  0  0  0
   17.9847  -16.0708   24.9746 H   0  0  0  0  0  0  0  0  0  0  0  0
   14.6607   -9.3290   19.9756 H   0  0  0  0  0  0  0  0  0  0  0  0
   14.6327  -10.9069   19.1176 H   0  0  0  0  0  0  0  0  0  0  0  0
   20.2026  -14.0632   22.2095 H   0  0  0  0  0  0  0  0  0  0  0  0
   19.4803  -14.7473   20.7139 H   0  0  0  0  0  0  0  0  0  0  0  0
   18.9569  -12.6797   25.5746 H   0  0  0  0  0  0  0  0  0  0  0  0
   21.2821  -11.8536   25.8011 H   0  0  0  0  0  0  0  0  0  0  0  0
   11.6980  -13.6083   21.7991 H   0  0  0  0  0  0  0  0  0  0  0  0
   23.1873  -13.3214   25.1618 H   0  0  0  0  0  0  0  0  0  0  0  0
   10.7717  -11.9970   23.4375 H   0  0  0  0  0  0  0  0  0  0  0  0
   22.7541  -15.6376   24.3639 H   0  0  0  0  0  0  0  0  0  0  0  0
   20.4173  -16.4497   24.1006 H   0  0  0  0  0  0  0  0  0  0  0  0
   13.5123   -8.9916   22.0247 H   0  0  0  0  0  0  0  0  0  0  0  0
   14.4622  -13.8251   20.4558 H   0  0  0  0  0  0  0  0  0  0  0  0
   12.8219  -13.9620   19.7368 H   0  0  0  0  0  0  0  0  0  0  0  0
   13.9956  -12.7732   19.0767 H   0  0  0  0  0  0  0  0  0  0  0  0
   12.1158   -9.5370   24.8124 H   0  0  0  0  0  0  0  0  0  0  0  0
   11.6116   -8.4056   23.5116 H   0  0  0  0  0  0  0  0  0  0  0  0
   10.4813   -9.6802   24.0813 H   0  0  0  0  0  0  0  0  0  0  0  0
  1  2  1  0  0  0  0
  1 14  1  0  0  0  0
  1  3  1  0  0  0  0
  2  5  1  0  0  0  0
  2  7  1  0  0  0  0
  3  8  1  0  0  0  0
  3  4  1  0  0  0  0
  5  6  2  0  0  0  0
  5  9  1  0  0  0  0
  7 10  1  0  0  0  0
  8 11  2  0  0  0  0
  8 12  1  0  0  0  0
  9 13  1  0  0  0  0
 10 14  1  0  0  0  0
 12 15  1  0  0  0  0
 13 16  1  0  0  0  0
 15 17  2  0  0  0  0
 15 25  1  0  0  0  0
 16 18  2  0  0  0  0
 16 26  1  0  0  0  0
 17 19  1  0  0  0  0
 18 20  1  0  0  0  0
 18 27  1  0  0  0  0
 19 21  2  0  0  0  0
 20 22  2  0  0  0  0
 21 23  1  0  0  0  0
 22 24  1  0  0  0  0
 23 25  2  0  0  0  0
 24 26  2  0  0  0  0
 24 28  1  0  0  0  0
  2 29  1  0  0  0  0
  3 30  1  0  0  0  0
  4 31  1  0  0  0  0
  7 32  1  0  0  0  0
  7 33  1  0  0  0  0
  9 34  1  0  0  0  0
 10 35  1  0  0  0  0
 10 36  1  0  0  0  0
 11 37  1  0  0  0  0
 12 38  1  0  0  0  0
 12 39  1  0  0  0  0
 13 40  1  0  0  0  0
 13 41  1  0  0  0  0
 14 42  1  0  0  0  0
 14 43  1  0  0  0  0
 17 44  1  0  0  0  0
 19 45  1  0  0  0  0
 20 46  1  0  0  0  0
 21 47  1  0  0  0  0
 22 48  1  0  0  0  0
 23 49  1  0  0  0  0
 25 50  1  0  0  0  0
 26 51  1  0  0  0  0
 27 52  1  0  0  0  0
 27 53  1  0  0  0  0
 27 54  1  0  0  0  0
 28 55  1  0  0  0  0
 28 56  1  0  0  0  0
 28 57  1  0  0  0  0
M  END
> <r_user_dG.exp>
-8.22

$$$$
7a
  -OEChem-05162309453D
 Structure written by MMmdl.
 57 59  0     1  0  0  0  0  0999 V2000
   18.3714  -13.1884   21.6150 N   0  0  0  0  0  0  0  0  0  0  0  0
   18.2376  -11.8958   20.9137 C   0  0  2  0  0  0  0  0  0  0  0  0
   17.4535  -13.6998   22.4744 C   0  0  0  0  0  0  0  0  0  0  0  0
   16.4564  -13.0653   22.8232 O   0  0  0  0  0  0  0  0  0  0  0  0
   16.8822  -11.7251   20.1933 C   0  0  0  0  0  0  0  0  0  0  0  0
   16.5597  -12.5203   19.3090 O   0  0  0  0  0  0  0  0  0  0  0  0
   19.3957  -11.8806   19.9002 C   0  0  0  0  0  0  0  0  0  0  0  0
   17.6438  -15.1075   23.0722 C   0  0  2  0  0  0  0  0  0  0  0  0
   16.1070  -10.7041   20.5768 N   0  0  0  0  0  0  0  0  0  0  0  0
   20.4400  -12.8262   20.4504 C   0  0  0  0  0  0  0  0  0  0  0  0
   16.3782  -15.8524   22.9564 N   0  0  0  0  0  0  0  0  0  0  0  0
   18.0887  -15.0599   24.5536 C   0  0  0  0  0  0  0  0  0  0  0  0
   14.7606  -10.4180   20.0946 C   0  0  0  0  0  0  0  0  0  0  0  0
   19.6520  -13.8246   21.2876 C   0  0  0  0  0  0  0  0  0  0  0  0
   19.5204  -14.6005   24.7756 C   0  0  0  0  0  0  0  0  0  0  0  0
   13.6484  -10.9027   21.0223 C   0  0  0  0  0  0  0  0  0  0  0  0
   19.7809  -13.3155   25.2861 C   0  0  0  0  0  0  0  0  0  0  0  0
   13.1225  -12.2215   20.9619 C   0  0  0  0  0  0  0  0  0  0  0  0
   21.0968  -12.8490   25.4254 C   0  0  0  0  0  0  0  0  0  0  0  0
   12.0912  -12.6033   21.8422 C   0  0  0  0  0  0  0  0  0  0  0  0
   22.1731  -13.6821   25.0741 C   0  0  0  0  0  0  0  0  0  0  0  0
   11.5685  -11.6941   22.7743 C   0  0  0  0  0  0  0  0  0  0  0  0
   21.9269  -14.9875   24.6077 C   0  0  0  0  0  0  0  0  0  0  0  0
   12.0837  -10.3888   22.8432 C   0  0  0  0  0  0  0  0  0  0  0  0
   20.6031  -15.4477   24.4583 C   0  0  0  0  0  0  0  0  0  0  0  0
   13.1193   -9.9960   21.9695 C   0  0  0  0  0  0  0  0  0  0  0  0
   13.6358  -13.2672   19.9913 C   0  0  0  0  0  0  0  0  0  0  0  0
   11.5359   -9.4383   23.8829 C   0  0  0  0  0  0  0  0  0  0  0  0
   18.3718  -11.0678   21.6253 H   0  0  0  0  0  0  0  0  0  0  0  0
   16.8934  -14.1284   21.6303 H   0  0  0  0  0  0  0  0  0  0  0  0
   15.9402  -13.5906   23.4233 H   0  0  0  0  0  0  0  0  0  0  0  0
   15.7062  -12.2836   18.9655 H   0  0  0  0  0  0  0  0  0  0  0  0
   19.0472  -12.2262   18.9157 H   0  0  0  0  0  0  0  0  0  0  0  0
   19.8095  -10.8657   19.8072 H   0  0  0  0  0  0  0  0  0  0  0  0
   20.9698  -13.3375   19.6332 H   0  0  0  0  0  0  0  0  0  0  0  0
   21.1652  -12.2832   21.0744 H   0  0  0  0  0  0  0  0  0  0  0  0
   16.0537  -16.1798   23.8438 H   0  0  0  0  0  0  0  0  0  0  0  0
   17.4209  -14.3692   25.0892 H   0  0  0  0  0  0  0  0  0  0  0  0
   17.9847  -16.0708   24.9746 H   0  0  0  0  0  0  0  0  0  0  0  0
   14.6607   -9.3290   19.9756 H   0  0  0  0  0  0  0  0  0  0  0  0
   14.6327  -10.9069   19.1176 H   0  0  0  0  0  0  0  0  0  0  0  0
   20.2026  -14.0632   22.2095 H   0  0  0  0  0  0  0  0  0  0  0  0
   19.4803  -14.7473   20.7139 H   0  0  0  0  0  0  0  0  0  0  0  0
   18.9569  -12.6797   25.5746 H   0  0  0  0  0  0  0  0  0  0  0  0
   21.2821  -11.8536   25.8011 H   0  0  0  0  0  0  0  0  0  0  0  0
   11.6980  -13.6083   21.7991 H   0  0  0  0  0  0  0  0  0  0  0  0
   23.1873  -13.3214   25.1618 H   0  0  0  0  0  0  0  0  0  0  0  0
   10.7717  -11.9970   23.4375 H   0  0  0  0  0  0  0  0  0  0  0  0
   22.7541  -15.6376   24.3639 H   0  0  0  0  0  0  0  0  0  0  0  0
   20.4173  -16.4497   24.1006 H   0  0  0  0  0  0  0  0  0  0  0  0
   13.5123   -8.9916   22.0247 H   0  0  0  0  0  0  0  0  0  0  0  0
   14.4622  -13.8251   20.4558 H   0  0  0  0  0  0  0  0  0  0  0  0
   12.8219  -13.9620   19.7368 H   0  0  0  0  0  0  0  0  0  0  0  0
   13.9956  -12.7732   19.0767 H   0  0  0  0  0  0  0  0  0  0  0  0
   12.1158   -9.5370   24.8124 H   0  0  0  0  0  0  0  0  0  0  0  0
   11.6116   -8.4056   23.5116 H   0  0  0  0  0  0  0  0  0  0  0  0
   10.4813   -9.6802   24.0813 H   0  0  0  0  0  0  0  0  0  0  0  0
  1  2  1  0  0  0  0
  1 14  1  0  0  0  0
  1  3  1  0  0  0  0
  2  5  1  0  0  0  0
  2  7  1  0  0  0  0
  3  8  1  0  0  0  0
  3  4  1  0  0  0  0
  5  6  1  0  0  0  0
  5  9  2  0  0  0  0
  7 10  1  0  0  0  0
  8 11  2  0  0  0  0
  8 12  1  0  0  0  0
  9 13  1  0  0  0  0
 10 14  1  0  0  0  0
 12 15  1  0  0  0  0
 13 16  1  0  0  0  0
 15 17  2  0  0  0  0
 15 25  1  0  0  0  0
 16 18  2  0  0  0  0
 16 26  1  0  0  0  0
 17 19  1  0  0  0  0
 18 20  1  0  0  0  0
 18 27  1  0  0  0  0
 19 21  2  0  0  0  0
 20 22  2  0  0  0  0
 21 23  1  0  0  0  0
 22 24  1  0  0  0  0
 23 25  2  0  0  0  0
 24 26  2  0  0  0  0
 24 28  1  0  0  0  0
  2 29  1  0  0  0  0
  3 30  1  0  0  0  0
  4 31  1  0  0  0  0
  6 32  1  0  0  0  0
  7 33  1  0  0  0  0
  7 34  1  0  0  0  0
 10 35  1  0  0  0  0
 10 36  1  0  0  0  0
 11 37  1  0  0  0  0
 12 38  1  0  0  0  0
 12 39  1  0  0  0  0
 13 40  1  0  0  0  0
 13 41  1  0  0  0  0
 14 42  1  0  0  0  0
 14 43  1  0  0  0  0
 17 44  1  0  0  0  0
 19 45  1  0  0  0  0
 20 46  1  0  0  0  0
 21 47  1  0  0  0  0
 22 48  1  0  0  0  0
 23 49  1  0  0  0  0
 25 50  1  0  0  0  0
 26 51  1  0  0  0  0
 27 52  1  0  0  0  0
 27 53  1  0  0  0  0
 27 54  1  0  0  0  0
 28 55  1  0  0  0  0
 28 56  1  0  0  0  0
 28 57  1  0  0  0  0
M  END
> <r_user_dG.exp>
-8.22

$$$$
7a
  -OEChem-05162309453D
 Structure written by MMmdl.
 57 59  0     1  0  0  0  0  0999 V2000
   18.3714  -13.1884   21.6150 N   0  0  0  0  0  0  0  0  0  0  0  0
   18.2376  -11.8958   20.9137 C   0  0  2  0  0  0  0  0  0  0  0  0
   17.4535  -13.6998   22.4744 C   0  0  0  0  0  0  0  0  0  0  0  0
   16.4564  -13.0653   22.8232 O   0  0  0  0  0  0  0  0  0  0  0  0
   16.8822  -11.7251   20.1933 C   0  0  0  0  0  0  0  0  0  0  0  0
   16.5597  -12.5203   19.3090 O   0  0  0  0  0  0  0  0  0  0  0  0
   19.3957  -11.8806   19.9002 C   0  0  0  0  0  0  0  0  0  0  0  0
   17.6438  -15.1075   23.0722 C   0  0  2  0  0  0  0  0  0  0  0  0
   16.1070  -10.7041   20.5768 N   0  0  0  0  0  0  0  0  0  0  0  0
   20.4400  -12.8262   20.4504 C   0  0  0  0  0  0  0  0  0  0  0  0
   16.3782  -15.8524   22.9564 N   0  0  0  0  0  0  0  0  0  0  0  0
   18.0887  -15.0599   24.5536 C   0  0  0  0  0  0  0  0  0  0  0  0
   14.7606  -10.4180   20.0946 C   0  0  0  0  0  0  0  0  0  0  0  0
   19.6520  -13.8246   21.2876 C   0  0  0  0  0  0  0  0  0  0  0  0
   19.5204  -14.6005   24.7756 C   0  0  0  0  0  0  0  0  0  0  0  0
   13.6484  -10.9027   21.0223 C   0  0  0  0  0  0  0  0  0  0  0  0
   19.7809  -13.3155   25.2861 C   0  0  0  0  0  0  0  0  0  0  0  0
   13.1225  -12.2215   20.9619 C   0  0  0  0  0  0  0  0  0  0  0  0
   21.0968  -12.8490   25.4254 C   0  0  0  0  0  0  0  0  0  0  0  0
   12.0912  -12.6033   21.8422 C   0  0  0  0  0  0  0  0  0  0  0  0
   22.1731  -13.6821   25.0741 C   0  0  0  0  0  0  0  0  0  0  0  0
   11.5685  -11.6941   22.7743 C   0  0  0  0  0  0  0  0  0  0  0  0
   21.9269  -14.9875   24.6077 C   0  0  0  0  0  0  0  0  0  0  0  0
   12.0837  -10.3888   22.8432 C   0  0  0  0  0  0  0  0  0  0  0  0
   20.6031  -15.4477   24.4583 C   0  0  0  0  0  0  0  0  0  0  0  0
   13.1193   -9.9960   21.9695 C   0  0  0  0  0  0  0  0  0  0  0  0
   13.6358  -13.2672   19.9913 C   0  0  0  0  0  0  0  0  0  0  0  0
   11.5359   -9.4383   23.8829 C   0  0  0  0  0  0  0  0  0  0  0  0
   18.3718  -11.0678   21.6253 H   0  0  0  0  0  0  0  0  0  0  0  0
   15.9402  -13.5906   23.4233 H   0  0  0  0  0  0  0  0  0  0  0  0
   19.0472  -12.2262   18.9157 H   0  0  0  0  0  0  0  0  0  0  0  0
   19.8095  -10.8657   19.8072 H   0  0  0  0  0  0  0  0  0  0  0  0
   16.4866  -10.0783   21.2582 H   0  0  0  0  0  0  0  0  0  0  0  0
   20.9698  -13.3375   19.6332 H   0  0  0  0  0  0  0  0  0  0  0  0
   21.1652  -12.2832   21.0744 H   0  0  0  0  0  0  0  0  0  0  0  0
   16.4931  -16.7677   23.3423 H   0  0  0  0  0  0  0  0  0  0  0  0
   15.6596  -15.3681   23.4556 H   0  0  0  0  0  0  0  0  0  0  0  0
   17.4209  -14.3692   25.0892 H   0  0  0  0  0  0  0  0  0  0  0  0
   17.9847  -16.0708   24.9746 H   0  0  0  0  0  0  0  0  0  0  0  0
   14.6607   -9.3290   19.9756 H   0  0  0  0  0  0  0  0  0  0  0  0
   14.6327  -10.9069   19.1176 H   0  0  0  0  0  0  0  0  0  0  0  0
   20.2026  -14.0632   22.2095 H   0  0  0  0  0  0  0  0  0  0  0  0
   19.4803  -14.7473   20.7139 H   0  0  0  0  0  0  0  0  0  0  0  0
   18.9569  -12.6797   25.5746 H   0  0  0  0  0  0  0  0  0  0  0  0
   21.2821  -11.8536   25.8011 H   0  0  0  0  0  0  0  0  0  0  0  0
   11.6980  -13.6083   21.7991 H   0  0  0  0  0  0  0  0  0  0  0  0
   23.1873  -13.3214   25.1618 H   0  0  0  0  0  0  0  0  0  0  0  0
   10.7717  -11.9970   23.4375 H   0  0  0  0  0  0  0  0  0  0  0  0
   22.7541  -15.6376   24.3639 H   0  0  0  0  0  0  0  0  0  0  0  0
   20.4173  -16.4497   24.1006 H   0  0  0  0  0  0  0  0  0  0  0  0
   13.5123   -8.9916   22.0247 H   0  0  0  0  0  0  0  0  0  0  0  0
   14.4622  -13.8251   20.4558 H   0  0  0  0  0  0  0  0  0  0  0  0
   12.8219  -13.9620   19.7368 H   0  0  0  0  0  0  0  0  0  0  0  0
   13.9956  -12.7732   19.0767 H   0  0  0  0  0  0  0  0  0  0  0  0
   12.1158   -9.5370   24.8124 H   0  0  0  0  0  0  0  0  0  0  0  0
   11.6116   -8.4056   23.5116 H   0  0  0  0  0  0  0  0  0  0  0  0
   10.4813   -9.6802   24.0813 H   0  0  0  0  0  0  0  0  0  0  0  0
  1  2  1  0  0  0  0
  1 14  1  0  0  0  0
  1  3  1  0  0  0  0
  2  5  1  0  0  0  0
  2  7  1  0  0  0  0
  3  8  2  0  0  0  0
  3  4  1  0  0  0  0
  5  6  2  0  0  0  0
  5  9  1  0  0  0  0
  7 10  1  0  0  0  0
  8 11  1  0  0  0  0
  8 12  1  0  0  0  0
  9 13  1  0  0  0  0
 10 14  1  0  0  0  0
 12 15  1  0  0  0  0
 13 16  1  0  0  0  0
 15 17  2  0  0  0  0
 15 25  1  0  0  0  0
 16 18  2  0  0  0  0
 16 26  1  0  0  0  0
 17 19  1  0  0  0  0
 18 20  1  0  0  0  0
 18 27  1  0  0  0  0
 19 21  2  0  0  0  0
 20 22  2  0  0  0  0
 21 23  1  0  0  0  0
 22 24  1  0  0  0  0
 23 25  2  0  0  0  0
 24 26  2  0  0  0  0
 24 28  1  0  0  0  0
  2 29  1  0  0  0  0
  4 30  1  0  0  0  0
  7 31  1  0  0  0  0
  7 32  1  0  0  0  0
  9 33  1  0  0  0  0
 10 34  1  0  0  0  0
 10 35  1  0  0  0  0
 11 36  1  0  0  0  0
 11 37  1  0  0  0  0
 12 38  1  0  0  0  0
 12 39  1  0  0  0  0
 13 40  1  0  0  0  0
 13 41  1  0  0  0  0
 14 42  1  0  0  0  0
 14 43  1  0  0  0  0
 17 44  1  0  0  0  0
 19 45  1  0  0  0  0
 20 46  1  0  0  0  0
 21 47  1  0  0  0  0
 22 48  1  0  0  0  0
 23 49  1  0  0  0  0
 25 50  1  0  0  0  0
 26 51  1  0  0  0  0
 27 52  1  0  0  0  0
 27 53  1  0  0  0  0
 27 54  1  0  0  0  0
 28 55  1  0  0  0  0
 28 56  1  0  0  0  0
 28 57  1  0  0  0  0
M  END
> <r_user_dG.exp>
-8.22

$$$$
7a
  -OEChem-05162309453D
 Structure written by MMmdl.
 57 59  0     1  0  0  0  0  0999 V2000
   18.3714  -13.1884   21.6150 N   0  0  0  0  0  0  0  0  0  0  0  0
   18.2376  -11.8958   20.9137 C   0  0  2  0  0  0  0  0  0  0  0  0
   17.4535  -13.6998   22.4744 C   0  0  0  0  0  0  0  0  0  0  0  0
   16.4564  -13.0653   22.8232 O   0  0  0  0  0  0  0  0  0  0  0  0
   16.8822  -11.7251   20.1933 C   0  0  0  0  0  0  0  0  0  0  0  0
   16.5597  -12.5203   19.3090 O   0  0  0  0  0  0  0  0  0  0  0  0
   19.3957  -11.8806   19.9002 C   0  0  0  0  0  0  0  0  0  0  0  0
   17.6438  -15.1075   23.0722 C   0  0  2  0  0  0  0  0  0  0  0  0
   16.1070  -10.7041   20.5768 N   0  0  0  0  0  0  0  0  0  0  0  0
   20.4400  -12.8262   20.4504 C   0  0  0  0  0  0  0  0  0  0  0  0
   16.3782  -15.8524   22.9564 N   0  0  0  0  0  0  0  0  0  0  0  0
   18.0887  -15.0599   24.5536 C   0  0  0  0  0  0  0  0  0  0  0  0
   14.7606  -10.4180   20.0946 C   0  0  0  0  0  0  0  0  0  0  0  0
   19.6520  -13.8246   21.2876 C   0  0  0  0  0  0  0  0  0  0  0  0
   19.5204  -14.6005   24.7756 C   0  0  0  0  0  0  0  0  0  0  0  0
   13.6484  -10.9027   21.0223 C   0  0  0  0  0  0  0  0  0  0  0  0
   19.7809  -13.3155   25.2861 C   0  0  0  0  0  0  0  0  0  0  0  0
   13.1225  -12.2215   20.9619 C   0  0  0  0  0  0  0  0  0  0  0  0
   21.0968  -12.8490   25.4254 C   0  0  0  0  0  0  0  0  0  0  0  0
   12.0912  -12.6033   21.8422 C   0  0  0  0  0  0  0  0  0  0  0  0
   22.1731  -13.6821   25.0741 C   0  0  0  0  0  0  0  0  0  0  0  0
   11.5685  -11.6941   22.7743 C   0  0  0  0  0  0  0  0  0  0  0  0
   21.9269  -14.9875   24.6077 C   0  0  0  0  0  0  0  0  0  0  0  0
   12.0837  -10.3888   22.8432 C   0  0  0  0  0  0  0  0  0  0  0  0
   20.6031  -15.4477   24.4583 C   0  0  0  0  0  0  0  0  0  0  0  0
   13.1193   -9.9960   21.9695 C   0  0  0  0  0  0  0  0  0  0  0  0
   13.6358  -13.2672   19.9913 C   0  0  0  0  0  0  0  0  0  0  0  0
   11.5359   -9.4383   23.8829 C   0  0  0  0  0  0  0  0  0  0  0  0
   18.3718  -11.0678   21.6253 H   0  0  0  0  0  0  0  0  0  0  0  0
   15.9402  -13.5906   23.4233 H   0  0  0  0  0  0  0  0  0  0  0  0
   15.7062  -12.2836   18.9655 H   0  0  0  0  0  0  0  0  0  0  0  0
   19.0472  -12.2262   18.9157 H   0  0  0  0  0  0  0  0  0  0  0  0
   19.8095  -10.8657   19.8072 H   0  0  0  0  0  0  0  0  0  0  0  0
   20.9698  -13.3375   19.6332 H   0  0  0  0  0  0  0  0  0  0  0  0
   21.1652  -12.2832   21.0744 H   0  0  0  0  0  0  0  0  0  0  0  0
   16.4931  -16.7677   23.3423 H   0  0  0  0  0  0  0  0  0  0  0  0
   15.6596  -15.3681   23.4556 H   0  0  0  0  0  0  0  0  0  0  0  0
   17.4209  -14.3692   25.0892 H   0  0  0  0  0  0  0  0  0  0  0  0
   17.9847  -16.0708   24.9746 H   0  0  0  0  0  0  0  0  0  0  0  0
   14.6607   -9.3290   19.9756 H   0  0  0  0  0  0  0  0  0  0  0  0
   14.6327  -10.9069   19.1176 H   0  0  0  0  0  0  0  0  0  0  0  0
   20.2026  -14.0632   22.2095 H   0  0  0  0  0  0  0  0  0  0  0  0
   19.4803  -14.7473   20.7139 H   0  0  0  0  0  0  0  0  0  0  0  0
   18.9569  -12.6797   25.5746 H   0  0  0  0  0  0  0  0  0  0  0  0
   21.2821  -11.8536   25.8011 H   0  0  0  0  0  0  0  0  0  0  0  0
   11.6980  -13.6083   21.7991 H   0  0  0  0  0  0  0  0  0  0  0  0
   23.1873  -13.3214   25.1618 H   0  0  0  0  0  0  0  0  0  0  0  0
   10.7717  -11.9970   23.4375 H   0  0  0  0  0  0  0  0  0  0  0  0
   22.7541  -15.6376   24.3639 H   0  0  0  0  0  0  0  0  0  0  0  0
   20.4173  -16.4497   24.1006 H   0  0  0  0  0  0  0  0  0  0  0  0
   13.5123   -8.9916   22.0247 H   0  0  0  0  0  0  0  0  0  0  0  0
   14.4622  -13.8251   20.4558 H   0  0  0  0  0  0  0  0  0  0  0  0
   12.8219  -13.9620   19.7368 H   0  0  0  0  0  0  0  0  0  0  0  0
   13.9956  -12.7732   19.0767 H   0  0  0  0  0  0  0  0  0  0  0  0
   12.1158   -9.5370   24.8124 H   0  0  0  0  0  0  0  0  0  0  0  0
   11.6116   -8.4056   23.5116 H   0  0  0  0  0  0  0  0  0  0  0  0
   10.4813   -9.6802   24.0813 H   0  0  0  0  0  0  0  0  0  0  0  0
  1  2  1  0  0  0  0
  1 14  1  0  0  0  0
  1  3  1  0  0  0  0
  2  5  1  0  0  0  0
  2  7  1  0  0  0  0
  3  8  2  0  0  0  0
  3  4  1  0  0  0  0
  5  6  1  0  0  0  0
  5  9  2  0  0  0  0
  7 10  1  0  0  0  0
  8 11  1  0  0  0  0
  8 12  1  0  0  0  0
  9 13  1  0  0  0  0
 10 14  1  0  0  0  0
 12 15  1  0  0  0  0
 13 16  1  0  0  0  0
 15 17  2  0  0  0  0
 15 25  1  0  0  0  0
 16 18  2  0  0  0  0
 16 26  1  0  0  0  0
 17 19  1  0  0  0  0
 18 20  1  0  0  0  0
 18 27  1  0  0  0  0
 19 21  2  0  0  0  0
 20 22  2  0  0  0  0
 21 23  1  0  0  0  0
 22 24  1  0  0  0  0
 23 25  2  0  0  0  0
 24 26  2  0  0  0  0
 24 28  1  0  0  0  0
  2 29  1  0  0  0  0
  4 30  1  0  0  0  0
  6 31  1  0  0  0  0
  7 32  1  0  0  0  0
  7 33  1  0  0  0  0
 10 34  1  0  0  0  0
 10 35  1  0  0  0  0
 11 36  1  0  0  0  0
 11 37  1  0  0  0  0
 12 38  1  0  0  0  0
 12 39  1  0  0  0  0
 13 40  1  0  0  0  0
 13 41  1  0  0  0  0
 14 42  1  0  0  0  0
 14 43  1  0  0  0  0
 17 44  1  0  0  0  0
 19 45  1  0  0  0  0
 20 46  1  0  0  0  0
 21 47  1  0  0  0  0
 22 48  1  0  0  0  0
 23 49  1  0  0  0  0
 25 50  1  0  0  0  0
 26 51  1  0  0  0  0
 27 52  1  0  0  0  0
 27 53  1  0  0  0  0
 27 54  1  0  0  0  0
 28 55  1  0  0  0  0
 28 56  1  0  0  0  0
 28 57  1  0  0  0  0
M  END
> <r_user_dG.exp>
-8.22

$$$$
