18631-1
  -OEChem-05162309453D
 Structure written by MMmdl.
 42 43  0     0  0  0  0  0  0999 V2000
   24.0755   12.4055   30.2451 C   0  0  0  0  0  0  0  0  0  0  0  0
   23.3424   11.0801   30.4647 C   0  0  0  0  0  0  0  0  0  0  0  0
   22.2047   11.3422   31.2813 O   0  0  0  0  0  0  0  0  0  0  0  0
   21.4058   10.2921   31.7002 C   0  0  0  0  0  0  0  0  0  0  0  0
   21.7494    9.0415   31.2875 N   0  0  0  0  0  0  0  0  0  0  0  0
   20.9744    8.0116   31.6611 C   0  0  0  0  0  0  0  0  0  0  0  0
   19.8654    8.1565   32.4823 C   0  0  0  0  0  0  0  0  0  0  0  0
   19.5167    9.4285   32.8985 C   0  0  0  0  0  0  0  0  0  0  0  0
   18.3785    9.5086   33.6918 N   0  0  0  0  0  0  0  0  0  0  0  0
   20.2859   10.5348   32.5034 C   0  0  0  0  0  0  0  0  0  0  0  0
   19.9577   11.9052   32.8782 C   0  0  0  0  0  0  0  0  0  0  0  0
   19.7043   12.9964   33.1698 N   0  0  0  0  0  0  0  0  0  0  0  0
   21.4335    6.8284   31.1203 N   0  0  0  0  0  0  0  0  0  0  0  0
   20.8529    5.6284   31.0363 C   0  0  0  0  0  0  0  0  0  0  0  0
   19.7241    5.3670   31.4482 O   0  0  0  0  0  0  0  0  0  0  0  0
   21.6449    4.5576   30.2938 C   0  0  0  0  0  0  0  0  0  0  0  0
   23.0457    4.3201   30.8547 C   0  0  0  0  0  0  0  0  0  0  0  0
   24.1118    5.1697   30.5127 C   0  0  0  0  0  0  0  0  0  0  0  0
   23.8316    6.2511   29.6969 O   0  0  0  0  0  0  0  0  0  0  0  0
   24.8029    7.2847   29.5518 C   0  0  0  0  0  0  0  0  0  0  0  0
   25.3922    4.8833   31.0087 C   0  0  0  0  0  0  0  0  0  0  0  0
   25.6006    3.7978   31.8588 C   0  0  0  0  0  0  0  0  0  0  0  0
   24.5324    2.9786   32.2141 C   0  0  0  0  0  0  0  0  0  0  0  0
   23.2600    3.2339   31.7089 C   0  0  0  0  0  0  0  0  0  0  0  0
   24.9616   12.2351   29.6160 H   0  0  0  0  0  0  0  0  0  0  0  0
   23.4028   13.1181   29.7454 H   0  0  0  0  0  0  0  0  0  0  0  0
   24.3889   12.8163   31.2162 H   0  0  0  0  0  0  0  0  0  0  0  0
   23.0215   10.6652   29.4978 H   0  0  0  0  0  0  0  0  0  0  0  0
   24.0076   10.3635   30.9686 H   0  0  0  0  0  0  0  0  0  0  0  0
   19.2884    7.2967   32.7891 H   0  0  0  0  0  0  0  0  0  0  0  0
   18.2108   10.4628   33.9395 H   0  0  0  0  0  0  0  0  0  0  0  0
   17.5933    9.1530   33.1849 H   0  0  0  0  0  0  0  0  0  0  0  0
   22.3515    6.8771   30.7266 H   0  0  0  0  0  0  0  0  0  0  0  0
   21.0851    3.6123   30.3496 H   0  0  0  0  0  0  0  0  0  0  0  0
   21.7410    4.8653   29.2421 H   0  0  0  0  0  0  0  0  0  0  0  0
   24.4165    8.0589   28.8726 H   0  0  0  0  0  0  0  0  0  0  0  0
   25.0127    7.7312   30.5350 H   0  0  0  0  0  0  0  0  0  0  0  0
   25.7292    6.8615   29.1361 H   0  0  0  0  0  0  0  0  0  0  0  0
   26.2258    5.5104   30.7291 H   0  0  0  0  0  0  0  0  0  0  0  0
   26.5896    3.5927   32.2412 H   0  0  0  0  0  0  0  0  0  0  0  0
   24.6906    2.1447   32.8819 H   0  0  0  0  0  0  0  0  0  0  0  0
   22.4354    2.5904   31.9779 H   0  0  0  0  0  0  0  0  0  0  0  0
  1  2  1  0  0  0  0
  2  3  1  0  0  0  0
  3  4  1  0  0  0  0
  4 10  2  0  0  0  0
  4  5  1  0  0  0  0
  5  6  2  0  0  0  0
  6  7  1  0  0  0  0
  6 13  1  0  0  0  0
  7  8  2  0  0  0  0
  8  9  1  0  0  0  0
  8 10  1  0  0  0  0
 10 11  1  0  0  0  0
 11 12  3  0  0  0  0
 13 14  1  0  0  0  0
 14 15  2  0  0  0  0
 14 16  1  0  0  0  0
 16 17  1  0  0  0  0
 17 24  2  0  0  0  0
 17 18  1  0  0  0  0
 18 19  1  0  0  0  0
 18 21  2  0  0  0  0
 19 20  1  0  0  0  0
 21 22  1  0  0  0  0
 22 23  2  0  0  0  0
 23 24  1  0  0  0  0
  1 25  1  0  0  0  0
  1 26  1  0  0  0  0
  1 27  1  0  0  0  0
  2 28  1  0  0  0  0
  2 29  1  0  0  0  0
  7 30  1  0  0  0  0
  9 31  1  0  0  0  0
  9 32  1  0  0  0  0
 13 33  1  0  0  0  0
 16 34  1  0  0  0  0
 16 35  1  0  0  0  0
 20 36  1  0  0  0  0
 20 37  1  0  0  0  0
 20 38  1  0  0  0  0
 21 39  1  0  0  0  0
 22 40  1  0  0  0  0
 23 41  1  0  0  0  0
 24 42  1  0  0  0  0
M  END
> <i_m_stars>
0

> <r_user_dG.exp>
-9.413821

$$$$
18631-1
  -OEChem-05162309453D
 Structure written by MMmdl.
 42 43  0     0  0  0  0  0  0999 V2000
   24.0755   12.4055   30.2451 C   0  0  0  0  0  0  0  0  0  0  0  0
   23.3424   11.0801   30.4647 C   0  0  0  0  0  0  0  0  0  0  0  0
   22.2047   11.3422   31.2813 O   0  0  0  0  0  0  0  0  0  0  0  0
   21.4058   10.2921   31.7002 C   0  0  0  0  0  0  0  0  0  0  0  0
   21.7494    9.0415   31.2875 N   0  0  0  0  0  0  0  0  0  0  0  0
   20.9744    8.0116   31.6611 C   0  0  0  0  0  0  0  0  0  0  0  0
   19.8654    8.1565   32.4823 C   0  0  0  0  0  0  0  0  0  0  0  0
   19.5167    9.4285   32.8985 C   0  0  0  0  0  0  0  0  0  0  0  0
   18.3785    9.5086   33.6918 N   0  0  0  0  0  0  0  0  0  0  0  0
   20.2859   10.5348   32.5034 C   0  0  0  0  0  0  0  0  0  0  0  0
   19.9577   11.9052   32.8782 C   0  0  0  0  0  0  0  0  0  0  0  0
   19.7043   12.9964   33.1698 N   0  0  0  0  0  0  0  0  0  0  0  0
   21.4335    6.8284   31.1203 N   0  0  0  0  0  0  0  0  0  0  0  0
   20.8529    5.6284   31.0363 C   0  0  0  0  0  0  0  0  0  0  0  0
   19.7241    5.3670   31.4482 O   0  0  0  0  0  0  0  0  0  0  0  0
   21.6449    4.5576   30.2938 C   0  0  0  0  0  0  0  0  0  0  0  0
   23.0457    4.3201   30.8547 C   0  0  0  0  0  0  0  0  0  0  0  0
   24.1118    5.1697   30.5127 C   0  0  0  0  0  0  0  0  0  0  0  0
   23.8316    6.2511   29.6969 O   0  0  0  0  0  0  0  0  0  0  0  0
   24.8029    7.2847   29.5518 C   0  0  0  0  0  0  0  0  0  0  0  0
   25.3922    4.8833   31.0087 C   0  0  0  0  0  0  0  0  0  0  0  0
   25.6006    3.7978   31.8588 C   0  0  0  0  0  0  0  0  0  0  0  0
   24.5324    2.9786   32.2141 C   0  0  0  0  0  0  0  0  0  0  0  0
   23.2600    3.2339   31.7089 C   0  0  0  0  0  0  0  0  0  0  0  0
   24.9616   12.2351   29.6160 H   0  0  0  0  0  0  0  0  0  0  0  0
   23.4028   13.1181   29.7454 H   0  0  0  0  0  0  0  0  0  0  0  0
   24.3889   12.8163   31.2162 H   0  0  0  0  0  0  0  0  0  0  0  0
   23.0215   10.6652   29.4978 H   0  0  0  0  0  0  0  0  0  0  0  0
   24.0076   10.3635   30.9686 H   0  0  0  0  0  0  0  0  0  0  0  0
   19.2884    7.2967   32.7891 H   0  0  0  0  0  0  0  0  0  0  0  0
   18.2108   10.4628   33.9395 H   0  0  0  0  0  0  0  0  0  0  0  0
   17.5933    9.1530   33.1849 H   0  0  0  0  0  0  0  0  0  0  0  0
   19.5283    4.4530   31.2784 H   0  0  0  0  0  0  0  0  0  0  0  0
   21.0851    3.6123   30.3496 H   0  0  0  0  0  0  0  0  0  0  0  0
   21.7410    4.8653   29.2421 H   0  0  0  0  0  0  0  0  0  0  0  0
   24.4165    8.0589   28.8726 H   0  0  0  0  0  0  0  0  0  0  0  0
   25.0127    7.7312   30.5350 H   0  0  0  0  0  0  0  0  0  0  0  0
   25.7292    6.8615   29.1361 H   0  0  0  0  0  0  0  0  0  0  0  0
   26.2258    5.5104   30.7291 H   0  0  0  0  0  0  0  0  0  0  0  0
   26.5896    3.5927   32.2412 H   0  0  0  0  0  0  0  0  0  0  0  0
   24.6906    2.1447   32.8819 H   0  0  0  0  0  0  0  0  0  0  0  0
   22.4354    2.5904   31.9779 H   0  0  0  0  0  0  0  0  0  0  0  0
  1  2  1  0  0  0  0
  2  3  1  0  0  0  0
  3  4  1  0  0  0  0
  4 10  2  0  0  0  0
  4  5  1  0  0  0  0
  5  6  2  0  0  0  0
  6  7  1  0  0  0  0
  6 13  1  0  0  0  0
  7  8  2  0  0  0  0
  8  9  1  0  0  0  0
  8 10  1  0  0  0  0
 10 11  1  0  0  0  0
 11 12  3  0  0  0  0
 13 14  2  0  0  0  0
 14 15  1  0  0  0  0
 14 16  1  0  0  0  0
 16 17  1  0  0  0  0
 17 24  2  0  0  0  0
 17 18  1  0  0  0  0
 18 19  1  0  0  0  0
 18 21  2  0  0  0  0
 19 20  1  0  0  0  0
 21 22  1  0  0  0  0
 22 23  2  0  0  0  0
 23 24  1  0  0  0  0
  1 25  1  0  0  0  0
  1 26  1  0  0  0  0
  1 27  1  0  0  0  0
  2 28  1  0  0  0  0
  2 29  1  0  0  0  0
  7 30  1  0  0  0  0
  9 31  1  0  0  0  0
  9 32  1  0  0  0  0
 15 33  1  0  0  0  0
 16 34  1  0  0  0  0
 16 35  1  0  0  0  0
 20 36  1  0  0  0  0
 20 37  1  0  0  0  0
 20 38  1  0  0  0  0
 21 39  1  0  0  0  0
 22 40  1  0  0  0  0
 23 41  1  0  0  0  0
 24 42  1  0  0  0  0
M  END
> <i_m_stars>
0

> <r_user_dG.exp>
-9.413821

$$$$
18631-1
  -OEChem-05162309453D
 Structure written by MMmdl.
 42 43  0     0  0  0  0  0  0999 V2000
   24.0755   12.4055   30.2451 C   0  0  0  0  0  0  0  0  0  0  0  0
   23.3424   11.0801   30.4647 C   0  0  0  0  0  0  0  0  0  0  0  0
   22.2047   11.3422   31.2813 O   0  0  0  0  0  0  0  0  0  0  0  0
   21.4058   10.2921   31.7002 C   0  0  0  0  0  0  0  0  0  0  0  0
   21.7494    9.0415   31.2875 N   0  0  0  0  0  0  0  0  0  0  0  0
   20.9744    8.0116   31.6611 C   0  0  0  0  0  0  0  0  0  0  0  0
   19.8654    8.1565   32.4823 C   0  0  0  0  0  0  0  0  0  0  0  0
   19.5167    9.4285   32.8985 C   0  0  0  0  0  0  0  0  0  0  0  0
   18.3785    9.5086   33.6918 N   0  0  0  0  0  0  0  0  0  0  0  0
   20.2859   10.5348   32.5034 C   0  0  0  0  0  0  0  0  0  0  0  0
   19.9577   11.9052   32.8782 C   0  0  0  0  0  0  0  0  0  0  0  0
   19.7043   12.9964   33.1698 N   0  0  0  0  0  0  0  0  0  0  0  0
   21.4335    6.8284   31.1203 N   0  0  0  0  0  0  0  0  0  0  0  0
   20.8529    5.6284   31.0363 C   0  0  0  0  0  0  0  0  0  0  0  0
   19.7241    5.3670   31.4482 O   0  0  0  0  0  0  0  0  0  0  0  0
   21.6449    4.5576   30.2938 C   0  0  0  0  0  0  0  0  0  0  0  0
   23.0457    4.3201   30.8547 C   0  0  0  0  0  0  0  0  0  0  0  0
   24.1118    5.1697   30.5127 C   0  0  0  0  0  0  0  0  0  0  0  0
   23.8316    6.2511   29.6969 O   0  0  0  0  0  0  0  0  0  0  0  0
   24.8029    7.2847   29.5518 C   0  0  0  0  0  0  0  0  0  0  0  0
   25.3922    4.8833   31.0087 C   0  0  0  0  0  0  0  0  0  0  0  0
   25.6006    3.7978   31.8588 C   0  0  0  0  0  0  0  0  0  0  0  0
   24.5324    2.9786   32.2141 C   0  0  0  0  0  0  0  0  0  0  0  0
   23.2600    3.2339   31.7089 C   0  0  0  0  0  0  0  0  0  0  0  0
   24.9616   12.2351   29.6160 H   0  0  0  0  0  0  0  0  0  0  0  0
   23.4028   13.1181   29.7454 H   0  0  0  0  0  0  0  0  0  0  0  0
   24.3889   12.8163   31.2162 H   0  0  0  0  0  0  0  0  0  0  0  0
   23.0215   10.6652   29.4978 H   0  0  0  0  0  0  0  0  0  0  0  0
   24.0076   10.3635   30.9686 H   0  0  0  0  0  0  0  0  0  0  0  0
   22.5593    8.8937   30.7199 H   0  0  0  0  0  0  0  0  0  0  0  0
   19.2884    7.2967   32.7891 H   0  0  0  0  0  0  0  0  0  0  0  0
   18.1682   10.4512   33.9511 H   0  0  0  0  0  0  0  0  0  0  0  0
   22.3515    6.8771   30.7266 H   0  0  0  0  0  0  0  0  0  0  0  0
   21.0851    3.6123   30.3496 H   0  0  0  0  0  0  0  0  0  0  0  0
   21.7410    4.8653   29.2421 H   0  0  0  0  0  0  0  0  0  0  0  0
   24.4165    8.0589   28.8726 H   0  0  0  0  0  0  0  0  0  0  0  0
   25.0127    7.7312   30.5350 H   0  0  0  0  0  0  0  0  0  0  0  0
   25.7292    6.8615   29.1361 H   0  0  0  0  0  0  0  0  0  0  0  0
   26.2258    5.5104   30.7291 H   0  0  0  0  0  0  0  0  0  0  0  0
   26.5896    3.5927   32.2412 H   0  0  0  0  0  0  0  0  0  0  0  0
   24.6906    2.1447   32.8819 H   0  0  0  0  0  0  0  0  0  0  0  0
   22.4354    2.5904   31.9779 H   0  0  0  0  0  0  0  0  0  0  0  0
  1  2  1  0  0  0  0
  2  3  1  0  0  0  0
  3  4  1  0  0  0  0
  4 10  2  0  0  0  0
  4  5  1  0  0  0  0
  5  6  1  0  0  0  0
  6  7  2  0  0  0  0
  6 13  1  0  0  0  0
  7  8  1  0  0  0  0
  8  9  2  0  0  0  0
  8 10  1  0  0  0  0
 10 11  1  0  0  0  0
 11 12  3  0  0  0  0
 13 14  1  0  0  0  0
 14 15  2  0  0  0  0
 14 16  1  0  0  0  0
 16 17  1  0  0  0  0
 17 24  2  0  0  0  0
 17 18  1  0  0  0  0
 18 19  1  0  0  0  0
 18 21  2  0  0  0  0
 19 20  1  0  0  0  0
 21 22  1  0  0  0  0
 22 23  2  0  0  0  0
 23 24  1  0  0  0  0
  1 25  1  0  0  0  0
  1 26  1  0  0  0  0
  1 27  1  0  0  0  0
  2 28  1  0  0  0  0
  2 29  1  0  0  0  0
  5 30  1  0  0  0  0
  7 31  1  0  0  0  0
  9 32  1  0  0  0  0
 13 33  1  0  0  0  0
 16 34  1  0  0  0  0
 16 35  1  0  0  0  0
 20 36  1  0  0  0  0
 20 37  1  0  0  0  0
 20 38  1  0  0  0  0
 21 39  1  0  0  0  0
 22 40  1  0  0  0  0
 23 41  1  0  0  0  0
 24 42  1  0  0  0  0
M  END
> <i_m_stars>
0

> <r_user_dG.exp>
-9.413821

$$$$
18631-1
  -OEChem-05162309453D
 Structure written by MMmdl.
 42 43  0     0  0  0  0  0  0999 V2000
   24.0755   12.4055   30.2451 C   0  0  0  0  0  0  0  0  0  0  0  0
   23.3424   11.0801   30.4647 C   0  0  0  0  0  0  0  0  0  0  0  0
   22.2047   11.3422   31.2813 O   0  0  0  0  0  0  0  0  0  0  0  0
   21.4058   10.2921   31.7002 C   0  0  0  0  0  0  0  0  0  0  0  0
   21.7494    9.0415   31.2875 N   0  0  0  0  0  0  0  0  0  0  0  0
   20.9744    8.0116   31.6611 C   0  0  0  0  0  0  0  0  0  0  0  0
   19.8654    8.1565   32.4823 C   0  0  0  0  0  0  0  0  0  0  0  0
   19.5167    9.4285   32.8985 C   0  0  0  0  0  0  0  0  0  0  0  0
   18.3785    9.5086   33.6918 N   0  0  0  0  0  0  0  0  0  0  0  0
   20.2859   10.5348   32.5034 C   0  0  0  0  0  0  0  0  0  0  0  0
   19.9577   11.9052   32.8782 C   0  0  0  0  0  0  0  0  0  0  0  0
   19.7043   12.9964   33.1698 N   0  0  0  0  0  0  0  0  0  0  0  0
   21.4335    6.8284   31.1203 N   0  0  0  0  0  0  0  0  0  0  0  0
   20.8529    5.6284   31.0363 C   0  0  0  0  0  0  0  0  0  0  0  0
   19.7241    5.3670   31.4482 O   0  0  0  0  0  0  0  0  0  0  0  0
   21.6449    4.5576   30.2938 C   0  0  0  0  0  0  0  0  0  0  0  0
   23.0457    4.3201   30.8547 C   0  0  0  0  0  0  0  0  0  0  0  0
   24.1118    5.1697   30.5127 C   0  0  0  0  0  0  0  0  0  0  0  0
   23.8316    6.2511   29.6969 O   0  0  0  0  0  0  0  0  0  0  0  0
   24.8029    7.2847   29.5518 C   0  0  0  0  0  0  0  0  0  0  0  0
   25.3922    4.8833   31.0087 C   0  0  0  0  0  0  0  0  0  0  0  0
   25.6006    3.7978   31.8588 C   0  0  0  0  0  0  0  0  0  0  0  0
   24.5324    2.9786   32.2141 C   0  0  0  0  0  0  0  0  0  0  0  0
   23.2600    3.2339   31.7089 C   0  0  0  0  0  0  0  0  0  0  0  0
   24.9616   12.2351   29.6160 H   0  0  0  0  0  0  0  0  0  0  0  0
   23.4028   13.1181   29.7454 H   0  0  0  0  0  0  0  0  0  0  0  0
   24.3889   12.8163   31.2162 H   0  0  0  0  0  0  0  0  0  0  0  0
   23.0215   10.6652   29.4978 H   0  0  0  0  0  0  0  0  0  0  0  0
   24.0076   10.3635   30.9686 H   0  0  0  0  0  0  0  0  0  0  0  0
   22.5593    8.8937   30.7199 H   0  0  0  0  0  0  0  0  0  0  0  0
   19.2884    7.2967   32.7891 H   0  0  0  0  0  0  0  0  0  0  0  0
   18.2108   10.4628   33.9395 H   0  0  0  0  0  0  0  0  0  0  0  0
   17.5933    9.1530   33.1849 H   0  0  0  0  0  0  0  0  0  0  0  0
   21.0851    3.6123   30.3496 H   0  0  0  0  0  0  0  0  0  0  0  0
   21.7410    4.8653   29.2421 H   0  0  0  0  0  0  0  0  0  0  0  0
   24.4165    8.0589   28.8726 H   0  0  0  0  0  0  0  0  0  0  0  0
   25.0127    7.7312   30.5350 H   0  0  0  0  0  0  0  0  0  0  0  0
   25.7292    6.8615   29.1361 H   0  0  0  0  0  0  0  0  0  0  0  0
   26.2258    5.5104   30.7291 H   0  0  0  0  0  0  0  0  0  0  0  0
   26.5896    3.5927   32.2412 H   0  0  0  0  0  0  0  0  0  0  0  0
   24.6906    2.1447   32.8819 H   0  0  0  0  0  0  0  0  0  0  0  0
   22.4354    2.5904   31.9779 H   0  0  0  0  0  0  0  0  0  0  0  0
  1  2  1  0  0  0  0
  2  3  1  0  0  0  0
  3  4  1  0  0  0  0
  4 10  2  0  0  0  0
  4  5  1  0  0  0  0
  5  6  1  0  0  0  0
  6  7  1  0  0  0  0
  6 13  2  0  0  0  0
  7  8  2  0  0  0  0
  8  9  1  0  0  0  0
  8 10  1  0  0  0  0
 10 11  1  0  0  0  0
 11 12  3  0  0  0  0
 13 14  1  0  0  0  0
 14 15  2  0  0  0  0
 14 16  1  0  0  0  0
 16 17  1  0  0  0  0
 17 24  2  0  0  0  0
 17 18  1  0  0  0  0
 18 19  1  0  0  0  0
 18 21  2  0  0  0  0
 19 20  1  0  0  0  0
 21 22  1  0  0  0  0
 22 23  2  0  0  0  0
 23 24  1  0  0  0  0
  1 25  1  0  0  0  0
  1 26  1  0  0  0  0
  1 27  1  0  0  0  0
  2 28  1  0  0  0  0
  2 29  1  0  0  0  0
  5 30  1  0  0  0  0
  7 31  1  0  0  0  0
  9 32  1  0  0  0  0
  9 33  1  0  0  0  0
 16 34  1  0  0  0  0
 16 35  1  0  0  0  0
 20 36  1  0  0  0  0
 20 37  1  0  0  0  0
 20 38  1  0  0  0  0
 21 39  1  0  0  0  0
 22 40  1  0  0  0  0
 23 41  1  0  0  0  0
 24 42  1  0  0  0  0
M  END
> <i_m_stars>
0

> <r_user_dG.exp>
-9.413821

$$$$
18631-1
  -OEChem-05162309453D
 Structure written by MMmdl.
 42 43  0     0  0  0  0  0  0999 V2000
   24.0755   12.4055   30.2451 C   0  0  0  0  0  0  0  0  0  0  0  0
   23.3424   11.0801   30.4647 C   0  0  0  0  0  0  0  0  0  0  0  0
   22.2047   11.3422   31.2813 O   0  0  0  0  0  0  0  0  0  0  0  0
   21.4058   10.2921   31.7002 C   0  0  0  0  0  0  0  0  0  0  0  0
   21.7494    9.0415   31.2875 N   0  0  0  0  0  0  0  0  0  0  0  0
   20.9744    8.0116   31.6611 C   0  0  0  0  0  0  0  0  0  0  0  0
   19.8654    8.1565   32.4823 C   0  0  0  0  0  0  0  0  0  0  0  0
   19.5167    9.4285   32.8985 C   0  0  0  0  0  0  0  0  0  0  0  0
   18.3785    9.5086   33.6918 N   0  0  0  0  0  0  0  0  0  0  0  0
   20.2859   10.5348   32.5034 C   0  0  0  0  0  0  0  0  0  0  0  0
   19.9577   11.9052   32.8782 C   0  0  0  0  0  0  0  0  0  0  0  0
   19.7043   12.9964   33.1698 N   0  0  0  0  0  0  0  0  0  0  0  0
   21.4335    6.8284   31.1203 N   0  0  0  0  0  0  0  0  0  0  0  0
   20.8529    5.6284   31.0363 C   0  0  0  0  0  0  0  0  0  0  0  0
   19.7241    5.3670   31.4482 O   0  0  0  0  0  0  0  0  0  0  0  0
   21.6449    4.5576   30.2938 C   0  0  0  0  0  0  0  0  0  0  0  0
   23.0457    4.3201   30.8547 C   0  0  0  0  0  0  0  0  0  0  0  0
   24.1118    5.1697   30.5127 C   0  0  0  0  0  0  0  0  0  0  0  0
   23.8316    6.2511   29.6969 O   0  0  0  0  0  0  0  0  0  0  0  0
   24.8029    7.2847   29.5518 C   0  0  0  0  0  0  0  0  0  0  0  0
   25.3922    4.8833   31.0087 C   0  0  0  0  0  0  0  0  0  0  0  0
   25.6006    3.7978   31.8588 C   0  0  0  0  0  0  0  0  0  0  0  0
   24.5324    2.9786   32.2141 C   0  0  0  0  0  0  0  0  0  0  0  0
   23.2600    3.2339   31.7089 C   0  0  0  0  0  0  0  0  0  0  0  0
   24.9616   12.2351   29.6160 H   0  0  0  0  0  0  0  0  0  0  0  0
   23.4028   13.1181   29.7454 H   0  0  0  0  0  0  0  0  0  0  0  0
   24.3889   12.8163   31.2162 H   0  0  0  0  0  0  0  0  0  0  0  0
   23.0215   10.6652   29.4978 H   0  0  0  0  0  0  0  0  0  0  0  0
   24.0076   10.3635   30.9686 H   0  0  0  0  0  0  0  0  0  0  0  0
   22.5593    8.8937   30.7199 H   0  0  0  0  0  0  0  0  0  0  0  0
   19.2884    7.2967   32.7891 H   0  0  0  0  0  0  0  0  0  0  0  0
   18.1682   10.4512   33.9511 H   0  0  0  0  0  0  0  0  0  0  0  0
   19.5283    4.4530   31.2784 H   0  0  0  0  0  0  0  0  0  0  0  0
   21.0851    3.6123   30.3496 H   0  0  0  0  0  0  0  0  0  0  0  0
   21.7410    4.8653   29.2421 H   0  0  0  0  0  0  0  0  0  0  0  0
   24.4165    8.0589   28.8726 H   0  0  0  0  0  0  0  0  0  0  0  0
   25.0127    7.7312   30.5350 H   0  0  0  0  0  0  0  0  0  0  0  0
   25.7292    6.8615   29.1361 H   0  0  0  0  0  0  0  0  0  0  0  0
   26.2258    5.5104   30.7291 H   0  0  0  0  0  0  0  0  0  0  0  0
   26.5896    3.5927   32.2412 H   0  0  0  0  0  0  0  0  0  0  0  0
   24.6906    2.1447   32.8819 H   0  0  0  0  0  0  0  0  0  0  0  0
   22.4354    2.5904   31.9779 H   0  0  0  0  0  0  0  0  0  0  0  0
  1  2  1  0  0  0  0
  2  3  1  0  0  0  0
  3  4  1  0  0  0  0
  4 10  2  0  0  0  0
  4  5  1  0  0  0  0
  5  6  1  0  0  0  0
  6  7  2  0  0  0  0
  6 13  1  0  0  0  0
  7  8  1  0  0  0  0
  8  9  2  0  0  0  0
  8 10  1  0  0  0  0
 10 11  1  0  0  0  0
 11 12  3  0  0  0  0
 13 14  2  0  0  0  0
 14 15  1  0  0  0  0
 14 16  1  0  0  0  0
 16 17  1  0  0  0  0
 17 24  2  0  0  0  0
 17 18  1  0  0  0  0
 18 19  1  0  0  0  0
 18 21  2  0  0  0  0
 19 20  1  0  0  0  0
 21 22  1  0  0  0  0
 22 23  2  0  0  0  0
 23 24  1  0  0  0  0
  1 25  1  0  0  0  0
  1 26  1  0  0  0  0
  1 27  1  0  0  0  0
  2 28  1  0  0  0  0
  2 29  1  0  0  0  0
  5 30  1  0  0  0  0
  7 31  1  0  0  0  0
  9 32  1  0  0  0  0
 15 33  1  0  0  0  0
 16 34  1  0  0  0  0
 16 35  1  0  0  0  0
 20 36  1  0  0  0  0
 20 37  1  0  0  0  0
 20 38  1  0  0  0  0
 21 39  1  0  0  0  0
 22 40  1  0  0  0  0
 23 41  1  0  0  0  0
 24 42  1  0  0  0  0
M  END
> <i_m_stars>
0

> <r_user_dG.exp>
-9.413821

$$$$
18631-1
  -OEChem-05162309453D
 Structure written by MMmdl.
 42 43  0     1  0  0  0  0  0999 V2000
   24.0755   12.4055   30.2451 C   0  0  0  0  0  0  0  0  0  0  0  0
   23.3424   11.0801   30.4647 C   0  0  0  0  0  0  0  0  0  0  0  0
   22.2047   11.3422   31.2813 O   0  0  0  0  0  0  0  0  0  0  0  0
   21.4058   10.2921   31.7002 C   0  0  0  0  0  0  0  0  0  0  0  0
   21.7494    9.0415   31.2875 N   0  0  0  0  0  0  0  0  0  0  0  0
   20.9744    8.0116   31.6611 C   0  0  0  0  0  0  0  0  0  0  0  0
   19.8654    8.1565   32.4823 C   0  0  0  0  0  0  0  0  0  0  0  0
   19.5167    9.4285   32.8985 C   0  0  0  0  0  0  0  0  0  0  0  0
   18.3785    9.5086   33.6918 N   0  0  0  0  0  0  0  0  0  0  0  0
   20.2859   10.5348   32.5034 C   0  0  3  0  0  0  0  0  0  0  0  0
   19.9577   11.9052   32.8782 C   0  0  0  0  0  0  0  0  0  0  0  0
   19.7043   12.9964   33.1698 N   0  0  0  0  0  0  0  0  0  0  0  0
   21.4335    6.8284   31.1203 N   0  0  0  0  0  0  0  0  0  0  0  0
   20.8529    5.6284   31.0363 C   0  0  0  0  0  0  0  0  0  0  0  0
   19.7241    5.3670   31.4482 O   0  0  0  0  0  0  0  0  0  0  0  0
   21.6449    4.5576   30.2938 C   0  0  0  0  0  0  0  0  0  0  0  0
   23.0457    4.3201   30.8547 C   0  0  0  0  0  0  0  0  0  0  0  0
   24.1118    5.1697   30.5127 C   0  0  0  0  0  0  0  0  0  0  0  0
   23.8316    6.2511   29.6969 O   0  0  0  0  0  0  0  0  0  0  0  0
   24.8029    7.2847   29.5518 C   0  0  0  0  0  0  0  0  0  0  0  0
   25.3922    4.8833   31.0087 C   0  0  0  0  0  0  0  0  0  0  0  0
   25.6006    3.7978   31.8588 C   0  0  0  0  0  0  0  0  0  0  0  0
   24.5324    2.9786   32.2141 C   0  0  0  0  0  0  0  0  0  0  0  0
   23.2600    3.2339   31.7089 C   0  0  0  0  0  0  0  0  0  0  0  0
   24.9616   12.2351   29.6160 H   0  0  0  0  0  0  0  0  0  0  0  0
   23.4028   13.1181   29.7454 H   0  0  0  0  0  0  0  0  0  0  0  0
   24.3889   12.8163   31.2162 H   0  0  0  0  0  0  0  0  0  0  0  0
   23.0215   10.6652   29.4978 H   0  0  0  0  0  0  0  0  0  0  0  0
   24.0076   10.3635   30.9686 H   0  0  0  0  0  0  0  0  0  0  0  0
   19.0024    7.7441   31.9390 H   0  0  0  0  0  0  0  0  0  0  0  0
   20.0498    7.5577   33.3864 H   0  0  0  0  0  0  0  0  0  0  0  0
   18.1682   10.4512   33.9511 H   0  0  0  0  0  0  0  0  0  0  0  0
   20.9057   10.4318   33.4063 H   0  0  0  0  0  0  0  0  0  0  0  0
   21.0851    3.6123   30.3496 H   0  0  0  0  0  0  0  0  0  0  0  0
   21.7410    4.8653   29.2421 H   0  0  0  0  0  0  0  0  0  0  0  0
   24.4165    8.0589   28.8726 H   0  0  0  0  0  0  0  0  0  0  0  0
   25.0127    7.7312   30.5350 H   0  0  0  0  0  0  0  0  0  0  0  0
   25.7292    6.8615   29.1361 H   0  0  0  0  0  0  0  0  0  0  0  0
   26.2258    5.5104   30.7291 H   0  0  0  0  0  0  0  0  0  0  0  0
   26.5896    3.5927   32.2412 H   0  0  0  0  0  0  0  0  0  0  0  0
   24.6906    2.1447   32.8819 H   0  0  0  0  0  0  0  0  0  0  0  0
   22.4354    2.5904   31.9779 H   0  0  0  0  0  0  0  0  0  0  0  0
  1  2  1  0  0  0  0
  2  3  1  0  0  0  0
  3  4  1  0  0  0  0
  4 10  1  0  0  0  0
  4  5  2  0  0  0  0
  5  6  1  0  0  0  0
  6  7  1  0  0  0  0
  6 13  2  0  0  0  0
  7  8  1  0  0  0  0
  8  9  2  0  0  0  0
  8 10  1  0  0  0  0
 10 11  1  0  0  0  0
 11 12  3  0  0  0  0
 13 14  1  0  0  0  0
 14 15  2  0  0  0  0
 14 16  1  0  0  0  0
 16 17  1  0  0  0  0
 17 24  2  0  0  0  0
 17 18  1  0  0  0  0
 18 19  1  0  0  0  0
 18 21  2  0  0  0  0
 19 20  1  0  0  0  0
 21 22  1  0  0  0  0
 22 23  2  0  0  0  0
 23 24  1  0  0  0  0
  1 25  1  0  0  0  0
  1 26  1  0  0  0  0
  1 27  1  0  0  0  0
  2 28  1  0  0  0  0
  2 29  1  0  0  0  0
  7 30  1  0  0  0  0
  7 31  1  0  0  0  0
  9 32  1  0  0  0  0
 10 33  1  0  0  0  0
 16 34  1  0  0  0  0
 16 35  1  0  0  0  0
 20 36  1  0  0  0  0
 20 37  1  0  0  0  0
 20 38  1  0  0  0  0
 21 39  1  0  0  0  0
 22 40  1  0  0  0  0
 23 41  1  0  0  0  0
 24 42  1  0  0  0  0
M  END
> <i_m_stars>
0

> <r_user_dG.exp>
-9.413821

$$$$
18631-1
  -OEChem-05162309453D
 Structure written by MMmdl.
 42 43  0     1  0  0  0  0  0999 V2000
   24.0755   12.4055   30.2451 C   0  0  0  0  0  0  0  0  0  0  0  0
   23.3424   11.0801   30.4647 C   0  0  0  0  0  0  0  0  0  0  0  0
   22.2047   11.3422   31.2813 O   0  0  0  0  0  0  0  0  0  0  0  0
   21.4058   10.2921   31.7002 C   0  0  0  0  0  0  0  0  0  0  0  0
   21.7494    9.0415   31.2875 N   0  0  0  0  0  0  0  0  0  0  0  0
   20.9744    8.0116   31.6611 C   0  0  0  0  0  0  0  0  0  0  0  0
   19.8654    8.1565   32.4823 C   0  0  0  0  0  0  0  0  0  0  0  0
   19.5167    9.4285   32.8985 C   0  0  0  0  0  0  0  0  0  0  0  0
   18.3785    9.5086   33.6918 N   0  0  0  0  0  0  0  0  0  0  0  0
   20.2859   10.5348   32.5034 C   0  0  3  0  0  0  0  0  0  0  0  0
   19.9577   11.9052   32.8782 C   0  0  0  0  0  0  0  0  0  0  0  0
   19.7043   12.9964   33.1698 N   0  0  0  0  0  0  0  0  0  0  0  0
   21.4335    6.8284   31.1203 N   0  0  0  0  0  0  0  0  0  0  0  0
   20.8529    5.6284   31.0363 C   0  0  0  0  0  0  0  0  0  0  0  0
   19.7241    5.3670   31.4482 O   0  0  0  0  0  0  0  0  0  0  0  0
   21.6449    4.5576   30.2938 C   0  0  0  0  0  0  0  0  0  0  0  0
   23.0457    4.3201   30.8547 C   0  0  0  0  0  0  0  0  0  0  0  0
   24.1118    5.1697   30.5127 C   0  0  0  0  0  0  0  0  0  0  0  0
   23.8316    6.2511   29.6969 O   0  0  0  0  0  0  0  0  0  0  0  0
   24.8029    7.2847   29.5518 C   0  0  0  0  0  0  0  0  0  0  0  0
   25.3922    4.8833   31.0087 C   0  0  0  0  0  0  0  0  0  0  0  0
   25.6006    3.7978   31.8588 C   0  0  0  0  0  0  0  0  0  0  0  0
   24.5324    2.9786   32.2141 C   0  0  0  0  0  0  0  0  0  0  0  0
   23.2600    3.2339   31.7089 C   0  0  0  0  0  0  0  0  0  0  0  0
   24.9616   12.2351   29.6160 H   0  0  0  0  0  0  0  0  0  0  0  0
   23.4028   13.1181   29.7454 H   0  0  0  0  0  0  0  0  0  0  0  0
   24.3889   12.8163   31.2162 H   0  0  0  0  0  0  0  0  0  0  0  0
   23.0215   10.6652   29.4978 H   0  0  0  0  0  0  0  0  0  0  0  0
   24.0076   10.3635   30.9686 H   0  0  0  0  0  0  0  0  0  0  0  0
   19.2884    7.2967   32.7891 H   0  0  0  0  0  0  0  0  0  0  0  0
   18.1682   10.4512   33.9511 H   0  0  0  0  0  0  0  0  0  0  0  0
   20.9057   10.4318   33.4063 H   0  0  0  0  0  0  0  0  0  0  0  0
   22.3515    6.8771   30.7266 H   0  0  0  0  0  0  0  0  0  0  0  0
   21.0851    3.6123   30.3496 H   0  0  0  0  0  0  0  0  0  0  0  0
   21.7410    4.8653   29.2421 H   0  0  0  0  0  0  0  0  0  0  0  0
   24.4165    8.0589   28.8726 H   0  0  0  0  0  0  0  0  0  0  0  0
   25.0127    7.7312   30.5350 H   0  0  0  0  0  0  0  0  0  0  0  0
   25.7292    6.8615   29.1361 H   0  0  0  0  0  0  0  0  0  0  0  0
   26.2258    5.5104   30.7291 H   0  0  0  0  0  0  0  0  0  0  0  0
   26.5896    3.5927   32.2412 H   0  0  0  0  0  0  0  0  0  0  0  0
   24.6906    2.1447   32.8819 H   0  0  0  0  0  0  0  0  0  0  0  0
   22.4354    2.5904   31.9779 H   0  0  0  0  0  0  0  0  0  0  0  0
  1  2  1  0  0  0  0
  2  3  1  0  0  0  0
  3  4  1  0  0  0  0
  4 10  1  0  0  0  0
  4  5  2  0  0  0  0
  5  6  1  0  0  0  0
  6  7  2  0  0  0  0
  6 13  1  0  0  0  0
  7  8  1  0  0  0  0
  8  9  2  0  0  0  0
  8 10  1  0  0  0  0
 10 11  1  0  0  0  0
 11 12  3  0  0  0  0
 13 14  1  0  0  0  0
 14 15  2  0  0  0  0
 14 16  1  0  0  0  0
 16 17  1  0  0  0  0
 17 24  2  0  0  0  0
 17 18  1  0  0  0  0
 18 19  1  0  0  0  0
 18 21  2  0  0  0  0
 19 20  1  0  0  0  0
 21 22  1  0  0  0  0
 22 23  2  0  0  0  0
 23 24  1  0  0  0  0
  1 25  1  0  0  0  0
  1 26  1  0  0  0  0
  1 27  1  0  0  0  0
  2 28  1  0  0  0  0
  2 29  1  0  0  0  0
  7 30  1  0  0  0  0
  9 31  1  0  0  0  0
 10 32  1  0  0  0  0
 13 33  1  0  0  0  0
 16 34  1  0  0  0  0
 16 35  1  0  0  0  0
 20 36  1  0  0  0  0
 20 37  1  0  0  0  0
 20 38  1  0  0  0  0
 21 39  1  0  0  0  0
 22 40  1  0  0  0  0
 23 41  1  0  0  0  0
 24 42  1  0  0  0  0
M  END
> <i_m_stars>
0

> <r_user_dG.exp>
-9.413821

$$$$
18631-1
  -OEChem-05162309453D
 Structure written by MMmdl.
 42 43  0     0  0  0  0  0  0999 V2000
   24.0755   12.4055   30.2451 C   0  0  0  0  0  0  0  0  0  0  0  0
   23.3424   11.0801   30.4647 C   0  0  0  0  0  0  0  0  0  0  0  0
   22.2047   11.3422   31.2813 O   0  0  0  0  0  0  0  0  0  0  0  0
   21.4058   10.2921   31.7002 C   0  0  0  0  0  0  0  0  0  0  0  0
   21.7494    9.0415   31.2875 N   0  0  0  0  0  0  0  0  0  0  0  0
   20.9744    8.0116   31.6611 C   0  0  0  0  0  0  0  0  0  0  0  0
   19.8654    8.1565   32.4823 C   0  0  0  0  0  0  0  0  0  0  0  0
   19.5167    9.4285   32.8985 C   0  0  0  0  0  0  0  0  0  0  0  0
   18.3785    9.5086   33.6918 N   0  0  0  0  0  0  0  0  0  0  0  0
   20.2859   10.5348   32.5034 C   0  0  0  0  0  0  0  0  0  0  0  0
   19.9577   11.9052   32.8782 C   0  0  0  0  0  0  0  0  0  0  0  0
   19.7043   12.9964   33.1698 N   0  0  0  0  0  0  0  0  0  0  0  0
   21.4335    6.8284   31.1203 N   0  0  0  0  0  0  0  0  0  0  0  0
   20.8529    5.6284   31.0363 C   0  0  0  0  0  0  0  0  0  0  0  0
   19.7241    5.3670   31.4482 O   0  0  0  0  0  0  0  0  0  0  0  0
   21.6449    4.5576   30.2938 C   0  0  0  0  0  0  0  0  0  0  0  0
   23.0457    4.3201   30.8547 C   0  0  0  0  0  0  0  0  0  0  0  0
   24.1118    5.1697   30.5127 C   0  0  0  0  0  0  0  0  0  0  0  0
   23.8316    6.2511   29.6969 O   0  0  0  0  0  0  0  0  0  0  0  0
   24.8029    7.2847   29.5518 C   0  0  0  0  0  0  0  0  0  0  0  0
   25.3922    4.8833   31.0087 C   0  0  0  0  0  0  0  0  0  0  0  0
   25.6006    3.7978   31.8588 C   0  0  0  0  0  0  0  0  0  0  0  0
   24.5324    2.9786   32.2141 C   0  0  0  0  0  0  0  0  0  0  0  0
   23.2600    3.2339   31.7089 C   0  0  0  0  0  0  0  0  0  0  0  0
   24.9616   12.2351   29.6160 H   0  0  0  0  0  0  0  0  0  0  0  0
   23.4028   13.1181   29.7454 H   0  0  0  0  0  0  0  0  0  0  0  0
   24.3889   12.8163   31.2162 H   0  0  0  0  0  0  0  0  0  0  0  0
   23.0215   10.6652   29.4978 H   0  0  0  0  0  0  0  0  0  0  0  0
   24.0076   10.3635   30.9686 H   0  0  0  0  0  0  0  0  0  0  0  0
   19.0024    7.7441   31.9390 H   0  0  0  0  0  0  0  0  0  0  0  0
   20.0498    7.5577   33.3864 H   0  0  0  0  0  0  0  0  0  0  0  0
   18.1682   10.4512   33.9511 H   0  0  0  0  0  0  0  0  0  0  0  0
   22.3515    6.8771   30.7266 H   0  0  0  0  0  0  0  0  0  0  0  0
   21.0851    3.6123   30.3496 H   0  0  0  0  0  0  0  0  0  0  0  0
   21.7410    4.8653   29.2421 H   0  0  0  0  0  0  0  0  0  0  0  0
   24.4165    8.0589   28.8726 H   0  0  0  0  0  0  0  0  0  0  0  0
   25.0127    7.7312   30.5350 H   0  0  0  0  0  0  0  0  0  0  0  0
   25.7292    6.8615   29.1361 H   0  0  0  0  0  0  0  0  0  0  0  0
   26.2258    5.5104   30.7291 H   0  0  0  0  0  0  0  0  0  0  0  0
   26.5896    3.5927   32.2412 H   0  0  0  0  0  0  0  0  0  0  0  0
   24.6906    2.1447   32.8819 H   0  0  0  0  0  0  0  0  0  0  0  0
   22.4354    2.5904   31.9779 H   0  0  0  0  0  0  0  0  0  0  0  0
  1  2  1  0  0  0  0
  2  3  1  0  0  0  0
  3  4  1  0  0  0  0
  4 10  2  0  0  0  0
  4  5  1  0  0  0  0
  5  6  2  0  0  0  0
  6  7  1  0  0  0  0
  6 13  1  0  0  0  0
  7  8  1  0  0  0  0
  8  9  2  0  0  0  0
  8 10  1  0  0  0  0
 10 11  1  0  0  0  0
 11 12  3  0  0  0  0
 13 14  1  0  0  0  0
 14 15  2  0  0  0  0
 14 16  1  0  0  0  0
 16 17  1  0  0  0  0
 17 24  2  0  0  0  0
 17 18  1  0  0  0  0
 18 19  1  0  0  0  0
 18 21  2  0  0  0  0
 19 20  1  0  0  0  0
 21 22  1  0  0  0  0
 22 23  2  0  0  0  0
 23 24  1  0  0  0  0
  1 25  1  0  0  0  0
  1 26  1  0  0  0  0
  1 27  1  0  0  0  0
  2 28  1  0  0  0  0
  2 29  1  0  0  0  0
  7 30  1  0  0  0  0
  7 31  1  0  0  0  0
  9 32  1  0  0  0  0
 13 33  1  0  0  0  0
 16 34  1  0  0  0  0
 16 35  1  0  0  0  0
 20 36  1  0  0  0  0
 20 37  1  0  0  0  0
 20 38  1  0  0  0  0
 21 39  1  0  0  0  0
 22 40  1  0  0  0  0
 23 41  1  0  0  0  0
 24 42  1  0  0  0  0
M  END
> <i_m_stars>
0

> <r_user_dG.exp>
-9.413821

$$$$
18631-1
  -OEChem-05162309453D
 Structure written by MMmdl.
 42 43  0     1  0  0  0  0  0999 V2000
   24.0755   12.4055   30.2451 C   0  0  0  0  0  0  0  0  0  0  0  0
   23.3424   11.0801   30.4647 C   0  0  0  0  0  0  0  0  0  0  0  0
   22.2047   11.3422   31.2813 O   0  0  0  0  0  0  0  0  0  0  0  0
   21.4058   10.2921   31.7002 C   0  0  0  0  0  0  0  0  0  0  0  0
   21.7494    9.0415   31.2875 N   0  0  0  0  0  0  0  0  0  0  0  0
   20.9744    8.0116   31.6611 C   0  0  0  0  0  0  0  0  0  0  0  0
   19.8654    8.1565   32.4823 C   0  0  0  0  0  0  0  0  0  0  0  0
   19.5167    9.4285   32.8985 C   0  0  0  0  0  0  0  0  0  0  0  0
   18.3785    9.5086   33.6918 N   0  0  0  0  0  0  0  0  0  0  0  0
   20.2859   10.5348   32.5034 C   0  0  3  0  0  0  0  0  0  0  0  0
   19.9577   11.9052   32.8782 C   0  0  0  0  0  0  0  0  0  0  0  0
   19.7043   12.9964   33.1698 N   0  0  0  0  0  0  0  0  0  0  0  0
   21.4335    6.8284   31.1203 N   0  0  0  0  0  0  0  0  0  0  0  0
   20.8529    5.6284   31.0363 C   0  0  0  0  0  0  0  0  0  0  0  0
   19.7241    5.3670   31.4482 O   0  0  0  0  0  0  0  0  0  0  0  0
   21.6449    4.5576   30.2938 C   0  0  0  0  0  0  0  0  0  0  0  0
   23.0457    4.3201   30.8547 C   0  0  0  0  0  0  0  0  0  0  0  0
   24.1118    5.1697   30.5127 C   0  0  0  0  0  0  0  0  0  0  0  0
   23.8316    6.2511   29.6969 O   0  0  0  0  0  0  0  0  0  0  0  0
   24.8029    7.2847   29.5518 C   0  0  0  0  0  0  0  0  0  0  0  0
   25.3922    4.8833   31.0087 C   0  0  0  0  0  0  0  0  0  0  0  0
   25.6006    3.7978   31.8588 C   0  0  0  0  0  0  0  0  0  0  0  0
   24.5324    2.9786   32.2141 C   0  0  0  0  0  0  0  0  0  0  0  0
   23.2600    3.2339   31.7089 C   0  0  0  0  0  0  0  0  0  0  0  0
   24.9616   12.2351   29.6160 H   0  0  0  0  0  0  0  0  0  0  0  0
   23.4028   13.1181   29.7454 H   0  0  0  0  0  0  0  0  0  0  0  0
   24.3889   12.8163   31.2162 H   0  0  0  0  0  0  0  0  0  0  0  0
   23.0215   10.6652   29.4978 H   0  0  0  0  0  0  0  0  0  0  0  0
   24.0076   10.3635   30.9686 H   0  0  0  0  0  0  0  0  0  0  0  0
   19.2884    7.2967   32.7891 H   0  0  0  0  0  0  0  0  0  0  0  0
   18.2108   10.4628   33.9395 H   0  0  0  0  0  0  0  0  0  0  0  0
   17.5933    9.1530   33.1849 H   0  0  0  0  0  0  0  0  0  0  0  0
   20.9057   10.4318   33.4063 H   0  0  0  0  0  0  0  0  0  0  0  0
   21.0851    3.6123   30.3496 H   0  0  0  0  0  0  0  0  0  0  0  0
   21.7410    4.8653   29.2421 H   0  0  0  0  0  0  0  0  0  0  0  0
   24.4165    8.0589   28.8726 H   0  0  0  0  0  0  0  0  0  0  0  0
   25.0127    7.7312   30.5350 H   0  0  0  0  0  0  0  0  0  0  0  0
   25.7292    6.8615   29.1361 H   0  0  0  0  0  0  0  0  0  0  0  0
   26.2258    5.5104   30.7291 H   0  0  0  0  0  0  0  0  0  0  0  0
   26.5896    3.5927   32.2412 H   0  0  0  0  0  0  0  0  0  0  0  0
   24.6906    2.1447   32.8819 H   0  0  0  0  0  0  0  0  0  0  0  0
   22.4354    2.5904   31.9779 H   0  0  0  0  0  0  0  0  0  0  0  0
  1  2  1  0  0  0  0
  2  3  1  0  0  0  0
  3  4  1  0  0  0  0
  4 10  1  0  0  0  0
  4  5  2  0  0  0  0
  5  6  1  0  0  0  0
  6  7  1  0  0  0  0
  6 13  2  0  0  0  0
  7  8  2  0  0  0  0
  8  9  1  0  0  0  0
  8 10  1  0  0  0  0
 10 11  1  0  0  0  0
 11 12  3  0  0  0  0
 13 14  1  0  0  0  0
 14 15  2  0  0  0  0
 14 16  1  0  0  0  0
 16 17  1  0  0  0  0
 17 24  2  0  0  0  0
 17 18  1  0  0  0  0
 18 19  1  0  0  0  0
 18 21  2  0  0  0  0
 19 20  1  0  0  0  0
 21 22  1  0  0  0  0
 22 23  2  0  0  0  0
 23 24  1  0  0  0  0
  1 25  1  0  0  0  0
  1 26  1  0  0  0  0
  1 27  1  0  0  0  0
  2 28  1  0  0  0  0
  2 29  1  0  0  0  0
  7 30  1  0  0  0  0
  9 31  1  0  0  0  0
  9 32  1  0  0  0  0
 10 33  1  0  0  0  0
 16 34  1  0  0  0  0
 16 35  1  0  0  0  0
 20 36  1  0  0  0  0
 20 37  1  0  0  0  0
 20 38  1  0  0  0  0
 21 39  1  0  0  0  0
 22 40  1  0  0  0  0
 23 41  1  0  0  0  0
 24 42  1  0  0  0  0
M  END
> <i_m_stars>
0

> <r_user_dG.exp>
-9.413821

$$$$
18631-1
  -OEChem-05162309453D
 Structure written by MMmdl.
 42 43  0     0  0  0  0  0  0999 V2000
   24.0755   12.4055   30.2451 C   0  0  0  0  0  0  0  0  0  0  0  0
   23.3424   11.0801   30.4647 C   0  0  0  0  0  0  0  0  0  0  0  0
   22.2047   11.3422   31.2813 O   0  0  0  0  0  0  0  0  0  0  0  0
   21.4058   10.2921   31.7002 C   0  0  0  0  0  0  0  0  0  0  0  0
   21.7494    9.0415   31.2875 N   0  0  0  0  0  0  0  0  0  0  0  0
   20.9744    8.0116   31.6611 C   0  0  0  0  0  0  0  0  0  0  0  0
   19.8654    8.1565   32.4823 C   0  0  0  0  0  0  0  0  0  0  0  0
   19.5167    9.4285   32.8985 C   0  0  0  0  0  0  0  0  0  0  0  0
   18.3785    9.5086   33.6918 N   0  0  0  0  0  0  0  0  0  0  0  0
   20.2859   10.5348   32.5034 C   0  0  0  0  0  0  0  0  0  0  0  0
   19.9577   11.9052   32.8782 C   0  0  0  0  0  0  0  0  0  0  0  0
   19.7043   12.9964   33.1698 N   0  0  0  0  0  0  0  0  0  0  0  0
   21.4335    6.8284   31.1203 N   0  0  0  0  0  0  0  0  0  0  0  0
   20.8529    5.6284   31.0363 C   0  0  0  0  0  0  0  0  0  0  0  0
   19.7241    5.3670   31.4482 O   0  0  0  0  0  0  0  0  0  0  0  0
   21.6449    4.5576   30.2938 C   0  0  0  0  0  0  0  0  0  0  0  0
   23.0457    4.3201   30.8547 C   0  0  0  0  0  0  0  0  0  0  0  0
   24.1118    5.1697   30.5127 C   0  0  0  0  0  0  0  0  0  0  0  0
   23.8316    6.2511   29.6969 O   0  0  0  0  0  0  0  0  0  0  0  0
   24.8029    7.2847   29.5518 C   0  0  0  0  0  0  0  0  0  0  0  0
   25.3922    4.8833   31.0087 C   0  0  0  0  0  0  0  0  0  0  0  0
   25.6006    3.7978   31.8588 C   0  0  0  0  0  0  0  0  0  0  0  0
   24.5324    2.9786   32.2141 C   0  0  0  0  0  0  0  0  0  0  0  0
   23.2600    3.2339   31.7089 C   0  0  0  0  0  0  0  0  0  0  0  0
   24.9616   12.2351   29.6160 H   0  0  0  0  0  0  0  0  0  0  0  0
   23.4028   13.1181   29.7454 H   0  0  0  0  0  0  0  0  0  0  0  0
   24.3889   12.8163   31.2162 H   0  0  0  0  0  0  0  0  0  0  0  0
   23.0215   10.6652   29.4978 H   0  0  0  0  0  0  0  0  0  0  0  0
   24.0076   10.3635   30.9686 H   0  0  0  0  0  0  0  0  0  0  0  0
   19.0024    7.7441   31.9390 H   0  0  0  0  0  0  0  0  0  0  0  0
   20.0498    7.5577   33.3864 H   0  0  0  0  0  0  0  0  0  0  0  0
   18.2108   10.4628   33.9395 H   0  0  0  0  0  0  0  0  0  0  0  0
   17.5933    9.1530   33.1849 H   0  0  0  0  0  0  0  0  0  0  0  0
   21.0851    3.6123   30.3496 H   0  0  0  0  0  0  0  0  0  0  0  0
   21.7410    4.8653   29.2421 H   0  0  0  0  0  0  0  0  0  0  0  0
   24.4165    8.0589   28.8726 H   0  0  0  0  0  0  0  0  0  0  0  0
   25.0127    7.7312   30.5350 H   0  0  0  0  0  0  0  0  0  0  0  0
   25.7292    6.8615   29.1361 H   0  0  0  0  0  0  0  0  0  0  0  0
   26.2258    5.5104   30.7291 H   0  0  0  0  0  0  0  0  0  0  0  0
   26.5896    3.5927   32.2412 H   0  0  0  0  0  0  0  0  0  0  0  0
   24.6906    2.1447   32.8819 H   0  0  0  0  0  0  0  0  0  0  0  0
   22.4354    2.5904   31.9779 H   0  0  0  0  0  0  0  0  0  0  0  0
  1  2  1  0  0  0  0
  2  3  1  0  0  0  0
  3  4  1  0  0  0  0
  4 10  1  0  0  0  0
  4  5  2  0  0  0  0
  5  6  1  0  0  0  0
  6  7  1  0  0  0  0
  6 13  2  0  0  0  0
  7  8  1  0  0  0  0
  8  9  1  0  0  0  0
  8 10  2  0  0  0  0
 10 11  1  0  0  0  0
 11 12  3  0  0  0  0
 13 14  1  0  0  0  0
 14 15  2  0  0  0  0
 14 16  1  0  0  0  0
 16 17  1  0  0  0  0
 17 24  2  0  0  0  0
 17 18  1  0  0  0  0
 18 19  1  0  0  0  0
 18 21  2  0  0  0  0
 19 20  1  0  0  0  0
 21 22  1  0  0  0  0
 22 23  2  0  0  0  0
 23 24  1  0  0  0  0
  1 25  1  0  0  0  0
  1 26  1  0  0  0  0
  1 27  1  0  0  0  0
  2 28  1  0  0  0  0
  2 29  1  0  0  0  0
  7 30  1  0  0  0  0
  7 31  1  0  0  0  0
  9 32  1  0  0  0  0
  9 33  1  0  0  0  0
 16 34  1  0  0  0  0
 16 35  1  0  0  0  0
 20 36  1  0  0  0  0
 20 37  1  0  0  0  0
 20 38  1  0  0  0  0
 21 39  1  0  0  0  0
 22 40  1  0  0  0  0
 23 41  1  0  0  0  0
 24 42  1  0  0  0  0
M  END
> <i_m_stars>
0

> <r_user_dG.exp>
-9.413821

$$$$
18631-1
  -OEChem-05162309453D
 Structure written by MMmdl.
 42 43  0     0  0  0  0  0  0999 V2000
   24.0755   12.4055   30.2451 C   0  0  0  0  0  0  0  0  0  0  0  0
   23.3424   11.0801   30.4647 C   0  0  0  0  0  0  0  0  0  0  0  0
   22.2047   11.3422   31.2813 O   0  0  0  0  0  0  0  0  0  0  0  0
   21.4058   10.2921   31.7002 C   0  0  0  0  0  0  0  0  0  0  0  0
   21.7494    9.0415   31.2875 N   0  0  0  0  0  0  0  0  0  0  0  0
   20.9744    8.0116   31.6611 C   0  0  0  0  0  0  0  0  0  0  0  0
   19.8654    8.1565   32.4823 C   0  0  0  0  0  0  0  0  0  0  0  0
   19.5167    9.4285   32.8985 C   0  0  0  0  0  0  0  0  0  0  0  0
   18.3785    9.5086   33.6918 N   0  0  0  0  0  0  0  0  0  0  0  0
   20.2859   10.5348   32.5034 C   0  0  0  0  0  0  0  0  0  0  0  0
   19.9577   11.9052   32.8782 C   0  0  0  0  0  0  0  0  0  0  0  0
   19.7043   12.9964   33.1698 N   0  0  0  0  0  0  0  0  0  0  0  0
   21.4335    6.8284   31.1203 N   0  0  0  0  0  0  0  0  0  0  0  0
   20.8529    5.6284   31.0363 C   0  0  0  0  0  0  0  0  0  0  0  0
   19.7241    5.3670   31.4482 O   0  0  0  0  0  0  0  0  0  0  0  0
   21.6449    4.5576   30.2938 C   0  0  0  0  0  0  0  0  0  0  0  0
   23.0457    4.3201   30.8547 C   0  0  0  0  0  0  0  0  0  0  0  0
   24.1118    5.1697   30.5127 C   0  0  0  0  0  0  0  0  0  0  0  0
   23.8316    6.2511   29.6969 O   0  0  0  0  0  0  0  0  0  0  0  0
   24.8029    7.2847   29.5518 C   0  0  0  0  0  0  0  0  0  0  0  0
   25.3922    4.8833   31.0087 C   0  0  0  0  0  0  0  0  0  0  0  0
   25.6006    3.7978   31.8588 C   0  0  0  0  0  0  0  0  0  0  0  0
   24.5324    2.9786   32.2141 C   0  0  0  0  0  0  0  0  0  0  0  0
   23.2600    3.2339   31.7089 C   0  0  0  0  0  0  0  0  0  0  0  0
   24.9616   12.2351   29.6160 H   0  0  0  0  0  0  0  0  0  0  0  0
   23.4028   13.1181   29.7454 H   0  0  0  0  0  0  0  0  0  0  0  0
   24.3889   12.8163   31.2162 H   0  0  0  0  0  0  0  0  0  0  0  0
   23.0215   10.6652   29.4978 H   0  0  0  0  0  0  0  0  0  0  0  0
   24.0076   10.3635   30.9686 H   0  0  0  0  0  0  0  0  0  0  0  0
   22.5593    8.8937   30.7199 H   0  0  0  0  0  0  0  0  0  0  0  0
   19.0024    7.7441   31.9390 H   0  0  0  0  0  0  0  0  0  0  0  0
   20.0498    7.5577   33.3864 H   0  0  0  0  0  0  0  0  0  0  0  0
   18.1682   10.4512   33.9511 H   0  0  0  0  0  0  0  0  0  0  0  0
   21.0851    3.6123   30.3496 H   0  0  0  0  0  0  0  0  0  0  0  0
   21.7410    4.8653   29.2421 H   0  0  0  0  0  0  0  0  0  0  0  0
   24.4165    8.0589   28.8726 H   0  0  0  0  0  0  0  0  0  0  0  0
   25.0127    7.7312   30.5350 H   0  0  0  0  0  0  0  0  0  0  0  0
   25.7292    6.8615   29.1361 H   0  0  0  0  0  0  0  0  0  0  0  0
   26.2258    5.5104   30.7291 H   0  0  0  0  0  0  0  0  0  0  0  0
   26.5896    3.5927   32.2412 H   0  0  0  0  0  0  0  0  0  0  0  0
   24.6906    2.1447   32.8819 H   0  0  0  0  0  0  0  0  0  0  0  0
   22.4354    2.5904   31.9779 H   0  0  0  0  0  0  0  0  0  0  0  0
  1  2  1  0  0  0  0
  2  3  1  0  0  0  0
  3  4  1  0  0  0  0
  4 10  2  0  0  0  0
  4  5  1  0  0  0  0
  5  6  1  0  0  0  0
  6  7  1  0  0  0  0
  6 13  2  0  0  0  0
  7  8  1  0  0  0  0
  8  9  2  0  0  0  0
  8 10  1  0  0  0  0
 10 11  1  0  0  0  0
 11 12  3  0  0  0  0
 13 14  1  0  0  0  0
 14 15  2  0  0  0  0
 14 16  1  0  0  0  0
 16 17  1  0  0  0  0
 17 24  2  0  0  0  0
 17 18  1  0  0  0  0
 18 19  1  0  0  0  0
 18 21  2  0  0  0  0
 19 20  1  0  0  0  0
 21 22  1  0  0  0  0
 22 23  2  0  0  0  0
 23 24  1  0  0  0  0
  1 25  1  0  0  0  0
  1 26  1  0  0  0  0
  1 27  1  0  0  0  0
  2 28  1  0  0  0  0
  2 29  1  0  0  0  0
  5 30  1  0  0  0  0
  7 31  1  0  0  0  0
  7 32  1  0  0  0  0
  9 33  1  0  0  0  0
 16 34  1  0  0  0  0
 16 35  1  0  0  0  0
 20 36  1  0  0  0  0
 20 37  1  0  0  0  0
 20 38  1  0  0  0  0
 21 39  1  0  0  0  0
 22 40  1  0  0  0  0
 23 41  1  0  0  0  0
 24 42  1  0  0  0  0
M  END
> <i_m_stars>
0

> <r_user_dG.exp>
-9.413821

$$$$
18631-1
  -OEChem-05162309453D
 Structure written by MMmdl.
 42 43  0     1  0  0  0  0  0999 V2000
   24.0755   12.4055   30.2451 C   0  0  0  0  0  0  0  0  0  0  0  0
   23.3424   11.0801   30.4647 C   0  0  0  0  0  0  0  0  0  0  0  0
   22.2047   11.3422   31.2813 O   0  0  0  0  0  0  0  0  0  0  0  0
   21.4058   10.2921   31.7002 C   0  0  0  0  0  0  0  0  0  0  0  0
   21.7494    9.0415   31.2875 N   0  0  0  0  0  0  0  0  0  0  0  0
   20.9744    8.0116   31.6611 C   0  0  0  0  0  0  0  0  0  0  0  0
   19.8654    8.1565   32.4823 C   0  0  0  0  0  0  0  0  0  0  0  0
   19.5167    9.4285   32.8985 C   0  0  0  0  0  0  0  0  0  0  0  0
   18.3785    9.5086   33.6918 N   0  0  0  0  0  0  0  0  0  0  0  0
   20.2859   10.5348   32.5034 C   0  0  3  0  0  0  0  0  0  0  0  0
   19.9577   11.9052   32.8782 C   0  0  0  0  0  0  0  0  0  0  0  0
   19.7043   12.9964   33.1698 N   0  0  0  0  0  0  0  0  0  0  0  0
   21.4335    6.8284   31.1203 N   0  0  0  0  0  0  0  0  0  0  0  0
   20.8529    5.6284   31.0363 C   0  0  0  0  0  0  0  0  0  0  0  0
   19.7241    5.3670   31.4482 O   0  0  0  0  0  0  0  0  0  0  0  0
   21.6449    4.5576   30.2938 C   0  0  0  0  0  0  0  0  0  0  0  0
   23.0457    4.3201   30.8547 C   0  0  0  0  0  0  0  0  0  0  0  0
   24.1118    5.1697   30.5127 C   0  0  0  0  0  0  0  0  0  0  0  0
   23.8316    6.2511   29.6969 O   0  0  0  0  0  0  0  0  0  0  0  0
   24.8029    7.2847   29.5518 C   0  0  0  0  0  0  0  0  0  0  0  0
   25.3922    4.8833   31.0087 C   0  0  0  0  0  0  0  0  0  0  0  0
   25.6006    3.7978   31.8588 C   0  0  0  0  0  0  0  0  0  0  0  0
   24.5324    2.9786   32.2141 C   0  0  0  0  0  0  0  0  0  0  0  0
   23.2600    3.2339   31.7089 C   0  0  0  0  0  0  0  0  0  0  0  0
   24.9616   12.2351   29.6160 H   0  0  0  0  0  0  0  0  0  0  0  0
   23.4028   13.1181   29.7454 H   0  0  0  0  0  0  0  0  0  0  0  0
   24.3889   12.8163   31.2162 H   0  0  0  0  0  0  0  0  0  0  0  0
   23.0215   10.6652   29.4978 H   0  0  0  0  0  0  0  0  0  0  0  0
   24.0076   10.3635   30.9686 H   0  0  0  0  0  0  0  0  0  0  0  0
   19.2884    7.2967   32.7891 H   0  0  0  0  0  0  0  0  0  0  0  0
   18.1682   10.4512   33.9511 H   0  0  0  0  0  0  0  0  0  0  0  0
   20.9057   10.4318   33.4063 H   0  0  0  0  0  0  0  0  0  0  0  0
   19.5283    4.4530   31.2784 H   0  0  0  0  0  0  0  0  0  0  0  0
   21.0851    3.6123   30.3496 H   0  0  0  0  0  0  0  0  0  0  0  0
   21.7410    4.8653   29.2421 H   0  0  0  0  0  0  0  0  0  0  0  0
   24.4165    8.0589   28.8726 H   0  0  0  0  0  0  0  0  0  0  0  0
   25.0127    7.7312   30.5350 H   0  0  0  0  0  0  0  0  0  0  0  0
   25.7292    6.8615   29.1361 H   0  0  0  0  0  0  0  0  0  0  0  0
   26.2258    5.5104   30.7291 H   0  0  0  0  0  0  0  0  0  0  0  0
   26.5896    3.5927   32.2412 H   0  0  0  0  0  0  0  0  0  0  0  0
   24.6906    2.1447   32.8819 H   0  0  0  0  0  0  0  0  0  0  0  0
   22.4354    2.5904   31.9779 H   0  0  0  0  0  0  0  0  0  0  0  0
  1  2  1  0  0  0  0
  2  3  1  0  0  0  0
  3  4  1  0  0  0  0
  4 10  1  0  0  0  0
  4  5  2  0  0  0  0
  5  6  1  0  0  0  0
  6  7  2  0  0  0  0
  6 13  1  0  0  0  0
  7  8  1  0  0  0  0
  8  9  2  0  0  0  0
  8 10  1  0  0  0  0
 10 11  1  0  0  0  0
 11 12  3  0  0  0  0
 13 14  2  0  0  0  0
 14 15  1  0  0  0  0
 14 16  1  0  0  0  0
 16 17  1  0  0  0  0
 17 24  2  0  0  0  0
 17 18  1  0  0  0  0
 18 19  1  0  0  0  0
 18 21  2  0  0  0  0
 19 20  1  0  0  0  0
 21 22  1  0  0  0  0
 22 23  2  0  0  0  0
 23 24  1  0  0  0  0
  1 25  1  0  0  0  0
  1 26  1  0  0  0  0
  1 27  1  0  0  0  0
  2 28  1  0  0  0  0
  2 29  1  0  0  0  0
  7 30  1  0  0  0  0
  9 31  1  0  0  0  0
 10 32  1  0  0  0  0
 15 33  1  0  0  0  0
 16 34  1  0  0  0  0
 16 35  1  0  0  0  0
 20 36  1  0  0  0  0
 20 37  1  0  0  0  0
 20 38  1  0  0  0  0
 21 39  1  0  0  0  0
 22 40  1  0  0  0  0
 23 41  1  0  0  0  0
 24 42  1  0  0  0  0
M  END
> <i_m_stars>
0

> <r_user_dG.exp>
-9.413821

$$$$
18631-1
  -OEChem-05162309453D
 Structure written by MMmdl.
 42 43  0     0  0  0  0  0  0999 V2000
   24.0755   12.4055   30.2451 C   0  0  0  0  0  0  0  0  0  0  0  0
   23.3424   11.0801   30.4647 C   0  0  0  0  0  0  0  0  0  0  0  0
   22.2047   11.3422   31.2813 O   0  0  0  0  0  0  0  0  0  0  0  0
   21.4058   10.2921   31.7002 C   0  0  0  0  0  0  0  0  0  0  0  0
   21.7494    9.0415   31.2875 N   0  0  0  0  0  0  0  0  0  0  0  0
   20.9744    8.0116   31.6611 C   0  0  0  0  0  0  0  0  0  0  0  0
   19.8654    8.1565   32.4823 C   0  0  0  0  0  0  0  0  0  0  0  0
   19.5167    9.4285   32.8985 C   0  0  0  0  0  0  0  0  0  0  0  0
   18.3785    9.5086   33.6918 N   0  0  0  0  0  0  0  0  0  0  0  0
   20.2859   10.5348   32.5034 C   0  0  0  0  0  0  0  0  0  0  0  0
   19.9577   11.9052   32.8782 C   0  0  0  0  0  0  0  0  0  0  0  0
   19.7043   12.9964   33.1698 N   0  0  0  0  0  0  0  0  0  0  0  0
   21.4335    6.8284   31.1203 N   0  0  0  0  0  0  0  0  0  0  0  0
   20.8529    5.6284   31.0363 C   0  0  0  0  0  0  0  0  0  0  0  0
   19.7241    5.3670   31.4482 O   0  0  0  0  0  0  0  0  0  0  0  0
   21.6449    4.5576   30.2938 C   0  0  0  0  0  0  0  0  0  0  0  0
   23.0457    4.3201   30.8547 C   0  0  0  0  0  0  0  0  0  0  0  0
   24.1118    5.1697   30.5127 C   0  0  0  0  0  0  0  0  0  0  0  0
   23.8316    6.2511   29.6969 O   0  0  0  0  0  0  0  0  0  0  0  0
   24.8029    7.2847   29.5518 C   0  0  0  0  0  0  0  0  0  0  0  0
   25.3922    4.8833   31.0087 C   0  0  0  0  0  0  0  0  0  0  0  0
   25.6006    3.7978   31.8588 C   0  0  0  0  0  0  0  0  0  0  0  0
   24.5324    2.9786   32.2141 C   0  0  0  0  0  0  0  0  0  0  0  0
   23.2600    3.2339   31.7089 C   0  0  0  0  0  0  0  0  0  0  0  0
   24.9616   12.2351   29.6160 H   0  0  0  0  0  0  0  0  0  0  0  0
   23.4028   13.1181   29.7454 H   0  0  0  0  0  0  0  0  0  0  0  0
   24.3889   12.8163   31.2162 H   0  0  0  0  0  0  0  0  0  0  0  0
   23.0215   10.6652   29.4978 H   0  0  0  0  0  0  0  0  0  0  0  0
   24.0076   10.3635   30.9686 H   0  0  0  0  0  0  0  0  0  0  0  0
   19.0024    7.7441   31.9390 H   0  0  0  0  0  0  0  0  0  0  0  0
   20.0498    7.5577   33.3864 H   0  0  0  0  0  0  0  0  0  0  0  0
   18.1682   10.4512   33.9511 H   0  0  0  0  0  0  0  0  0  0  0  0
   19.5283    4.4530   31.2784 H   0  0  0  0  0  0  0  0  0  0  0  0
   21.0851    3.6123   30.3496 H   0  0  0  0  0  0  0  0  0  0  0  0
   21.7410    4.8653   29.2421 H   0  0  0  0  0  0  0  0  0  0  0  0
   24.4165    8.0589   28.8726 H   0  0  0  0  0  0  0  0  0  0  0  0
   25.0127    7.7312   30.5350 H   0  0  0  0  0  0  0  0  0  0  0  0
   25.7292    6.8615   29.1361 H   0  0  0  0  0  0  0  0  0  0  0  0
   26.2258    5.5104   30.7291 H   0  0  0  0  0  0  0  0  0  0  0  0
   26.5896    3.5927   32.2412 H   0  0  0  0  0  0  0  0  0  0  0  0
   24.6906    2.1447   32.8819 H   0  0  0  0  0  0  0  0  0  0  0  0
   22.4354    2.5904   31.9779 H   0  0  0  0  0  0  0  0  0  0  0  0
  1  2  1  0  0  0  0
  2  3  1  0  0  0  0
  3  4  1  0  0  0  0
  4 10  2  0  0  0  0
  4  5  1  0  0  0  0
  5  6  2  0  0  0  0
  6  7  1  0  0  0  0
  6 13  1  0  0  0  0
  7  8  1  0  0  0  0
  8  9  2  0  0  0  0
  8 10  1  0  0  0  0
 10 11  1  0  0  0  0
 11 12  3  0  0  0  0
 13 14  2  0  0  0  0
 14 15  1  0  0  0  0
 14 16  1  0  0  0  0
 16 17  1  0  0  0  0
 17 24  2  0  0  0  0
 17 18  1  0  0  0  0
 18 19  1  0  0  0  0
 18 21  2  0  0  0  0
 19 20  1  0  0  0  0
 21 22  1  0  0  0  0
 22 23  2  0  0  0  0
 23 24  1  0  0  0  0
  1 25  1  0  0  0  0
  1 26  1  0  0  0  0
  1 27  1  0  0  0  0
  2 28  1  0  0  0  0
  2 29  1  0  0  0  0
  7 30  1  0  0  0  0
  7 31  1  0  0  0  0
  9 32  1  0  0  0  0
 15 33  1  0  0  0  0
 16 34  1  0  0  0  0
 16 35  1  0  0  0  0
 20 36  1  0  0  0  0
 20 37  1  0  0  0  0
 20 38  1  0  0  0  0
 21 39  1  0  0  0  0
 22 40  1  0  0  0  0
 23 41  1  0  0  0  0
 24 42  1  0  0  0  0
M  END
> <i_m_stars>
0

> <r_user_dG.exp>
-9.413821

$$$$
