18636-1
  -OEChem-05162309453D
 Structure written by MMmdl.
 38 39  0     0  0  0  0  0  0999 V2000
   23.9795   12.4589   30.2880 C   0  0  0  0  0  0  0  0  0  0  0  0
   23.2747   11.1170   30.5005 C   0  0  0  0  0  0  0  0  0  0  0  0
   22.1368   11.3490   31.3273 O   0  0  0  0  0  0  0  0  0  0  0  0
   21.3560   10.2807   31.7346 C   0  0  0  0  0  0  0  0  0  0  0  0
   21.7259    9.0407   31.3145 N   0  0  0  0  0  0  0  0  0  0  0  0
   20.9683    7.9946   31.6702 C   0  0  0  0  0  0  0  0  0  0  0  0
   19.8451    8.1072   32.4773 C   0  0  0  0  0  0  0  0  0  0  0  0
   19.4687    9.3702   32.9032 C   0  0  0  0  0  0  0  0  0  0  0  0
   18.3178    9.4274   33.6812 N   0  0  0  0  0  0  0  0  0  0  0  0
   20.2247   10.4942   32.5296 C   0  0  0  0  0  0  0  0  0  0  0  0
   19.8737   11.8560   32.9146 C   0  0  0  0  0  0  0  0  0  0  0  0
   19.6036   12.9410   33.2135 N   0  0  0  0  0  0  0  0  0  0  0  0
   21.4728    6.8392   31.1131 N   0  0  0  0  0  0  0  0  0  0  0  0
   20.9423    5.6177   31.0115 C   0  0  0  0  0  0  0  0  0  0  0  0
   19.8423    5.2962   31.4542 O   0  0  0  0  0  0  0  0  0  0  0  0
   21.7561    4.6026   30.2160 C   0  0  0  0  0  0  0  0  0  0  0  0
   23.0783    4.2283   30.8823 C   0  0  0  0  0  0  0  0  0  0  0  0
   23.1375    3.3173   31.9518 C   0  0  0  0  0  0  0  0  0  0  0  0
   21.5740    2.4705   32.6412 Br  0  0  0  0  0  0  0  0  0  0  0  0
   24.3634    3.0176   32.5456 C   0  0  0  0  0  0  0  0  0  0  0  0
   25.5365    3.6080   32.0767 C   0  0  0  0  0  0  0  0  0  0  0  0
   25.4840    4.5100   31.0173 C   0  0  0  0  0  0  0  0  0  0  0  0
   27.0825    5.3242   30.3860 Br  0  0  0  0  0  0  0  0  0  0  0  0
   24.2614    4.8204   30.4251 C   0  0  0  0  0  0  0  0  0  0  0  0
   24.8646   12.3120   29.6516 H   0  0  0  0  0  0  0  0  0  0  0  0
   23.2892   13.1621   29.7991 H   0  0  0  0  0  0  0  0  0  0  0  0
   24.2911   12.8674   31.2607 H   0  0  0  0  0  0  0  0  0  0  0  0
   22.9557   10.7043   29.5320 H   0  0  0  0  0  0  0  0  0  0  0  0
   23.9576   10.4095   30.9936 H   0  0  0  0  0  0  0  0  0  0  0  0
   19.2796    7.2334   32.7656 H   0  0  0  0  0  0  0  0  0  0  0  0
   18.1335   10.3768   33.9353 H   0  0  0  0  0  0  0  0  0  0  0  0
   17.5448    9.0660   33.1598 H   0  0  0  0  0  0  0  0  0  0  0  0
   22.3876    6.9307   30.7198 H   0  0  0  0  0  0  0  0  0  0  0  0
   21.1545    3.6893   30.0978 H   0  0  0  0  0  0  0  0  0  0  0  0
   21.9734    5.0292   29.2257 H   0  0  0  0  0  0  0  0  0  0  0  0
   24.4044    2.3246   33.3729 H   0  0  0  0  0  0  0  0  0  0  0  0
   26.4842    3.3660   32.5345 H   0  0  0  0  0  0  0  0  0  0  0  0
   24.2264    5.5238   29.6064 H   0  0  0  0  0  0  0  0  0  0  0  0
  1  2  1  0  0  0  0
  2  3  1  0  0  0  0
  3  4  1  0  0  0  0
  4 10  2  0  0  0  0
  4  5  1  0  0  0  0
  5  6  2  0  0  0  0
  6  7  1  0  0  0  0
  6 13  1  0  0  0  0
  7  8  2  0  0  0  0
  8  9  1  0  0  0  0
  8 10  1  0  0  0  0
 10 11  1  0  0  0  0
 11 12  3  0  0  0  0
 13 14  1  0  0  0  0
 14 15  2  0  0  0  0
 14 16  1  0  0  0  0
 16 17  1  0  0  0  0
 17 24  2  0  0  0  0
 17 18  1  0  0  0  0
 18 19  1  0  0  0  0
 18 20  2  0  0  0  0
 20 21  1  0  0  0  0
 21 22  2  0  0  0  0
 22 23  1  0  0  0  0
 22 24  1  0  0  0  0
  1 25  1  0  0  0  0
  1 26  1  0  0  0  0
  1 27  1  0  0  0  0
  2 28  1  0  0  0  0
  2 29  1  0  0  0  0
  7 30  1  0  0  0  0
  9 31  1  0  0  0  0
  9 32  1  0  0  0  0
 13 33  1  0  0  0  0
 16 34  1  0  0  0  0
 16 35  1  0  0  0  0
 20 36  1  0  0  0  0
 21 37  1  0  0  0  0
 24 38  1  0  0  0  0
M  END
> <i_m_stars>
0

> <r_user_dG.exp>
-7.512318

$$$$
18636-1
  -OEChem-05162309453D
 Structure written by MMmdl.
 38 39  0     0  0  0  0  0  0999 V2000
   23.9795   12.4589   30.2880 C   0  0  0  0  0  0  0  0  0  0  0  0
   23.2747   11.1170   30.5005 C   0  0  0  0  0  0  0  0  0  0  0  0
   22.1368   11.3490   31.3273 O   0  0  0  0  0  0  0  0  0  0  0  0
   21.3560   10.2807   31.7346 C   0  0  0  0  0  0  0  0  0  0  0  0
   21.7259    9.0407   31.3145 N   0  0  0  0  0  0  0  0  0  0  0  0
   20.9683    7.9946   31.6702 C   0  0  0  0  0  0  0  0  0  0  0  0
   19.8451    8.1072   32.4773 C   0  0  0  0  0  0  0  0  0  0  0  0
   19.4687    9.3702   32.9032 C   0  0  0  0  0  0  0  0  0  0  0  0
   18.3178    9.4274   33.6812 N   0  0  0  0  0  0  0  0  0  0  0  0
   20.2247   10.4942   32.5296 C   0  0  0  0  0  0  0  0  0  0  0  0
   19.8737   11.8560   32.9146 C   0  0  0  0  0  0  0  0  0  0  0  0
   19.6036   12.9410   33.2135 N   0  0  0  0  0  0  0  0  0  0  0  0
   21.4728    6.8392   31.1131 N   0  0  0  0  0  0  0  0  0  0  0  0
   20.9423    5.6177   31.0115 C   0  0  0  0  0  0  0  0  0  0  0  0
   19.8423    5.2962   31.4542 O   0  0  0  0  0  0  0  0  0  0  0  0
   21.7561    4.6026   30.2160 C   0  0  0  0  0  0  0  0  0  0  0  0
   23.0783    4.2283   30.8823 C   0  0  0  0  0  0  0  0  0  0  0  0
   23.1375    3.3173   31.9518 C   0  0  0  0  0  0  0  0  0  0  0  0
   21.5740    2.4705   32.6412 Br  0  0  0  0  0  0  0  0  0  0  0  0
   24.3634    3.0176   32.5456 C   0  0  0  0  0  0  0  0  0  0  0  0
   25.5365    3.6080   32.0767 C   0  0  0  0  0  0  0  0  0  0  0  0
   25.4840    4.5100   31.0173 C   0  0  0  0  0  0  0  0  0  0  0  0
   27.0825    5.3242   30.3860 Br  0  0  0  0  0  0  0  0  0  0  0  0
   24.2614    4.8204   30.4251 C   0  0  0  0  0  0  0  0  0  0  0  0
   24.8646   12.3120   29.6516 H   0  0  0  0  0  0  0  0  0  0  0  0
   23.2892   13.1621   29.7991 H   0  0  0  0  0  0  0  0  0  0  0  0
   24.2911   12.8674   31.2607 H   0  0  0  0  0  0  0  0  0  0  0  0
   22.9557   10.7043   29.5320 H   0  0  0  0  0  0  0  0  0  0  0  0
   23.9576   10.4095   30.9936 H   0  0  0  0  0  0  0  0  0  0  0  0
   19.2796    7.2334   32.7656 H   0  0  0  0  0  0  0  0  0  0  0  0
   18.1335   10.3768   33.9353 H   0  0  0  0  0  0  0  0  0  0  0  0
   17.5448    9.0660   33.1598 H   0  0  0  0  0  0  0  0  0  0  0  0
   19.6791    4.3800   31.2633 H   0  0  0  0  0  0  0  0  0  0  0  0
   21.1545    3.6893   30.0978 H   0  0  0  0  0  0  0  0  0  0  0  0
   21.9734    5.0292   29.2257 H   0  0  0  0  0  0  0  0  0  0  0  0
   24.4044    2.3246   33.3729 H   0  0  0  0  0  0  0  0  0  0  0  0
   26.4842    3.3660   32.5345 H   0  0  0  0  0  0  0  0  0  0  0  0
   24.2264    5.5238   29.6064 H   0  0  0  0  0  0  0  0  0  0  0  0
  1  2  1  0  0  0  0
  2  3  1  0  0  0  0
  3  4  1  0  0  0  0
  4 10  2  0  0  0  0
  4  5  1  0  0  0  0
  5  6  2  0  0  0  0
  6  7  1  0  0  0  0
  6 13  1  0  0  0  0
  7  8  2  0  0  0  0
  8  9  1  0  0  0  0
  8 10  1  0  0  0  0
 10 11  1  0  0  0  0
 11 12  3  0  0  0  0
 13 14  2  0  0  0  0
 14 15  1  0  0  0  0
 14 16  1  0  0  0  0
 16 17  1  0  0  0  0
 17 24  2  0  0  0  0
 17 18  1  0  0  0  0
 18 19  1  0  0  0  0
 18 20  2  0  0  0  0
 20 21  1  0  0  0  0
 21 22  2  0  0  0  0
 22 23  1  0  0  0  0
 22 24  1  0  0  0  0
  1 25  1  0  0  0  0
  1 26  1  0  0  0  0
  1 27  1  0  0  0  0
  2 28  1  0  0  0  0
  2 29  1  0  0  0  0
  7 30  1  0  0  0  0
  9 31  1  0  0  0  0
  9 32  1  0  0  0  0
 15 33  1  0  0  0  0
 16 34  1  0  0  0  0
 16 35  1  0  0  0  0
 20 36  1  0  0  0  0
 21 37  1  0  0  0  0
 24 38  1  0  0  0  0
M  END
> <i_m_stars>
0

> <r_user_dG.exp>
-7.512318

$$$$
18636-1
  -OEChem-05162309453D
 Structure written by MMmdl.
 38 39  0     0  0  0  0  0  0999 V2000
   23.9795   12.4589   30.2880 C   0  0  0  0  0  0  0  0  0  0  0  0
   23.2747   11.1170   30.5005 C   0  0  0  0  0  0  0  0  0  0  0  0
   22.1368   11.3490   31.3273 O   0  0  0  0  0  0  0  0  0  0  0  0
   21.3560   10.2807   31.7346 C   0  0  0  0  0  0  0  0  0  0  0  0
   21.7259    9.0407   31.3145 N   0  0  0  0  0  0  0  0  0  0  0  0
   20.9683    7.9946   31.6702 C   0  0  0  0  0  0  0  0  0  0  0  0
   19.8451    8.1072   32.4773 C   0  0  0  0  0  0  0  0  0  0  0  0
   19.4687    9.3702   32.9032 C   0  0  0  0  0  0  0  0  0  0  0  0
   18.3178    9.4274   33.6812 N   0  0  0  0  0  0  0  0  0  0  0  0
   20.2247   10.4942   32.5296 C   0  0  0  0  0  0  0  0  0  0  0  0
   19.8737   11.8560   32.9146 C   0  0  0  0  0  0  0  0  0  0  0  0
   19.6036   12.9410   33.2135 N   0  0  0  0  0  0  0  0  0  0  0  0
   21.4728    6.8392   31.1131 N   0  0  0  0  0  0  0  0  0  0  0  0
   20.9423    5.6177   31.0115 C   0  0  0  0  0  0  0  0  0  0  0  0
   19.8423    5.2962   31.4542 O   0  0  0  0  0  0  0  0  0  0  0  0
   21.7561    4.6026   30.2160 C   0  0  0  0  0  0  0  0  0  0  0  0
   23.0783    4.2283   30.8823 C   0  0  0  0  0  0  0  0  0  0  0  0
   23.1375    3.3173   31.9518 C   0  0  0  0  0  0  0  0  0  0  0  0
   21.5740    2.4705   32.6412 Br  0  0  0  0  0  0  0  0  0  0  0  0
   24.3634    3.0176   32.5456 C   0  0  0  0  0  0  0  0  0  0  0  0
   25.5365    3.6080   32.0767 C   0  0  0  0  0  0  0  0  0  0  0  0
   25.4840    4.5100   31.0173 C   0  0  0  0  0  0  0  0  0  0  0  0
   27.0825    5.3242   30.3860 Br  0  0  0  0  0  0  0  0  0  0  0  0
   24.2614    4.8204   30.4251 C   0  0  0  0  0  0  0  0  0  0  0  0
   24.8646   12.3120   29.6516 H   0  0  0  0  0  0  0  0  0  0  0  0
   23.2892   13.1621   29.7991 H   0  0  0  0  0  0  0  0  0  0  0  0
   24.2911   12.8674   31.2607 H   0  0  0  0  0  0  0  0  0  0  0  0
   22.9557   10.7043   29.5320 H   0  0  0  0  0  0  0  0  0  0  0  0
   23.9576   10.4095   30.9936 H   0  0  0  0  0  0  0  0  0  0  0  0
   22.5439    8.9131   30.7535 H   0  0  0  0  0  0  0  0  0  0  0  0
   19.2796    7.2334   32.7656 H   0  0  0  0  0  0  0  0  0  0  0  0
   18.0900   10.3648   33.9448 H   0  0  0  0  0  0  0  0  0  0  0  0
   22.3876    6.9307   30.7198 H   0  0  0  0  0  0  0  0  0  0  0  0
   21.1545    3.6893   30.0978 H   0  0  0  0  0  0  0  0  0  0  0  0
   21.9734    5.0292   29.2257 H   0  0  0  0  0  0  0  0  0  0  0  0
   24.4044    2.3246   33.3729 H   0  0  0  0  0  0  0  0  0  0  0  0
   26.4842    3.3660   32.5345 H   0  0  0  0  0  0  0  0  0  0  0  0
   24.2264    5.5238   29.6064 H   0  0  0  0  0  0  0  0  0  0  0  0
  1  2  1  0  0  0  0
  2  3  1  0  0  0  0
  3  4  1  0  0  0  0
  4 10  2  0  0  0  0
  4  5  1  0  0  0  0
  5  6  1  0  0  0  0
  6  7  2  0  0  0  0
  6 13  1  0  0  0  0
  7  8  1  0  0  0  0
  8  9  2  0  0  0  0
  8 10  1  0  0  0  0
 10 11  1  0  0  0  0
 11 12  3  0  0  0  0
 13 14  1  0  0  0  0
 14 15  2  0  0  0  0
 14 16  1  0  0  0  0
 16 17  1  0  0  0  0
 17 24  2  0  0  0  0
 17 18  1  0  0  0  0
 18 19  1  0  0  0  0
 18 20  2  0  0  0  0
 20 21  1  0  0  0  0
 21 22  2  0  0  0  0
 22 23  1  0  0  0  0
 22 24  1  0  0  0  0
  1 25  1  0  0  0  0
  1 26  1  0  0  0  0
  1 27  1  0  0  0  0
  2 28  1  0  0  0  0
  2 29  1  0  0  0  0
  5 30  1  0  0  0  0
  7 31  1  0  0  0  0
  9 32  1  0  0  0  0
 13 33  1  0  0  0  0
 16 34  1  0  0  0  0
 16 35  1  0  0  0  0
 20 36  1  0  0  0  0
 21 37  1  0  0  0  0
 24 38  1  0  0  0  0
M  END
> <i_m_stars>
0

> <r_user_dG.exp>
-7.512318

$$$$
18636-1
  -OEChem-05162309453D
 Structure written by MMmdl.
 38 39  0     0  0  0  0  0  0999 V2000
   23.9795   12.4589   30.2880 C   0  0  0  0  0  0  0  0  0  0  0  0
   23.2747   11.1170   30.5005 C   0  0  0  0  0  0  0  0  0  0  0  0
   22.1368   11.3490   31.3273 O   0  0  0  0  0  0  0  0  0  0  0  0
   21.3560   10.2807   31.7346 C   0  0  0  0  0  0  0  0  0  0  0  0
   21.7259    9.0407   31.3145 N   0  0  0  0  0  0  0  0  0  0  0  0
   20.9683    7.9946   31.6702 C   0  0  0  0  0  0  0  0  0  0  0  0
   19.8451    8.1072   32.4773 C   0  0  0  0  0  0  0  0  0  0  0  0
   19.4687    9.3702   32.9032 C   0  0  0  0  0  0  0  0  0  0  0  0
   18.3178    9.4274   33.6812 N   0  0  0  0  0  0  0  0  0  0  0  0
   20.2247   10.4942   32.5296 C   0  0  0  0  0  0  0  0  0  0  0  0
   19.8737   11.8560   32.9146 C   0  0  0  0  0  0  0  0  0  0  0  0
   19.6036   12.9410   33.2135 N   0  0  0  0  0  0  0  0  0  0  0  0
   21.4728    6.8392   31.1131 N   0  0  0  0  0  0  0  0  0  0  0  0
   20.9423    5.6177   31.0115 C   0  0  0  0  0  0  0  0  0  0  0  0
   19.8423    5.2962   31.4542 O   0  0  0  0  0  0  0  0  0  0  0  0
   21.7561    4.6026   30.2160 C   0  0  0  0  0  0  0  0  0  0  0  0
   23.0783    4.2283   30.8823 C   0  0  0  0  0  0  0  0  0  0  0  0
   23.1375    3.3173   31.9518 C   0  0  0  0  0  0  0  0  0  0  0  0
   21.5740    2.4705   32.6412 Br  0  0  0  0  0  0  0  0  0  0  0  0
   24.3634    3.0176   32.5456 C   0  0  0  0  0  0  0  0  0  0  0  0
   25.5365    3.6080   32.0767 C   0  0  0  0  0  0  0  0  0  0  0  0
   25.4840    4.5100   31.0173 C   0  0  0  0  0  0  0  0  0  0  0  0
   27.0825    5.3242   30.3860 Br  0  0  0  0  0  0  0  0  0  0  0  0
   24.2614    4.8204   30.4251 C   0  0  0  0  0  0  0  0  0  0  0  0
   24.8646   12.3120   29.6516 H   0  0  0  0  0  0  0  0  0  0  0  0
   23.2892   13.1621   29.7991 H   0  0  0  0  0  0  0  0  0  0  0  0
   24.2911   12.8674   31.2607 H   0  0  0  0  0  0  0  0  0  0  0  0
   22.9557   10.7043   29.5320 H   0  0  0  0  0  0  0  0  0  0  0  0
   23.9576   10.4095   30.9936 H   0  0  0  0  0  0  0  0  0  0  0  0
   22.5439    8.9131   30.7535 H   0  0  0  0  0  0  0  0  0  0  0  0
   19.2796    7.2334   32.7656 H   0  0  0  0  0  0  0  0  0  0  0  0
   18.1335   10.3768   33.9353 H   0  0  0  0  0  0  0  0  0  0  0  0
   17.5448    9.0660   33.1598 H   0  0  0  0  0  0  0  0  0  0  0  0
   21.1545    3.6893   30.0978 H   0  0  0  0  0  0  0  0  0  0  0  0
   21.9734    5.0292   29.2257 H   0  0  0  0  0  0  0  0  0  0  0  0
   24.4044    2.3246   33.3729 H   0  0  0  0  0  0  0  0  0  0  0  0
   26.4842    3.3660   32.5345 H   0  0  0  0  0  0  0  0  0  0  0  0
   24.2264    5.5238   29.6064 H   0  0  0  0  0  0  0  0  0  0  0  0
  1  2  1  0  0  0  0
  2  3  1  0  0  0  0
  3  4  1  0  0  0  0
  4 10  2  0  0  0  0
  4  5  1  0  0  0  0
  5  6  1  0  0  0  0
  6  7  1  0  0  0  0
  6 13  2  0  0  0  0
  7  8  2  0  0  0  0
  8  9  1  0  0  0  0
  8 10  1  0  0  0  0
 10 11  1  0  0  0  0
 11 12  3  0  0  0  0
 13 14  1  0  0  0  0
 14 15  2  0  0  0  0
 14 16  1  0  0  0  0
 16 17  1  0  0  0  0
 17 24  2  0  0  0  0
 17 18  1  0  0  0  0
 18 19  1  0  0  0  0
 18 20  2  0  0  0  0
 20 21  1  0  0  0  0
 21 22  2  0  0  0  0
 22 23  1  0  0  0  0
 22 24  1  0  0  0  0
  1 25  1  0  0  0  0
  1 26  1  0  0  0  0
  1 27  1  0  0  0  0
  2 28  1  0  0  0  0
  2 29  1  0  0  0  0
  5 30  1  0  0  0  0
  7 31  1  0  0  0  0
  9 32  1  0  0  0  0
  9 33  1  0  0  0  0
 16 34  1  0  0  0  0
 16 35  1  0  0  0  0
 20 36  1  0  0  0  0
 21 37  1  0  0  0  0
 24 38  1  0  0  0  0
M  END
> <i_m_stars>
0

> <r_user_dG.exp>
-7.512318

$$$$
18636-1
  -OEChem-05162309453D
 Structure written by MMmdl.
 38 39  0     0  0  0  0  0  0999 V2000
   23.9795   12.4589   30.2880 C   0  0  0  0  0  0  0  0  0  0  0  0
   23.2747   11.1170   30.5005 C   0  0  0  0  0  0  0  0  0  0  0  0
   22.1368   11.3490   31.3273 O   0  0  0  0  0  0  0  0  0  0  0  0
   21.3560   10.2807   31.7346 C   0  0  0  0  0  0  0  0  0  0  0  0
   21.7259    9.0407   31.3145 N   0  0  0  0  0  0  0  0  0  0  0  0
   20.9683    7.9946   31.6702 C   0  0  0  0  0  0  0  0  0  0  0  0
   19.8451    8.1072   32.4773 C   0  0  0  0  0  0  0  0  0  0  0  0
   19.4687    9.3702   32.9032 C   0  0  0  0  0  0  0  0  0  0  0  0
   18.3178    9.4274   33.6812 N   0  0  0  0  0  0  0  0  0  0  0  0
   20.2247   10.4942   32.5296 C   0  0  0  0  0  0  0  0  0  0  0  0
   19.8737   11.8560   32.9146 C   0  0  0  0  0  0  0  0  0  0  0  0
   19.6036   12.9410   33.2135 N   0  0  0  0  0  0  0  0  0  0  0  0
   21.4728    6.8392   31.1131 N   0  0  0  0  0  0  0  0  0  0  0  0
   20.9423    5.6177   31.0115 C   0  0  0  0  0  0  0  0  0  0  0  0
   19.8423    5.2962   31.4542 O   0  0  0  0  0  0  0  0  0  0  0  0
   21.7561    4.6026   30.2160 C   0  0  0  0  0  0  0  0  0  0  0  0
   23.0783    4.2283   30.8823 C   0  0  0  0  0  0  0  0  0  0  0  0
   23.1375    3.3173   31.9518 C   0  0  0  0  0  0  0  0  0  0  0  0
   21.5740    2.4705   32.6412 Br  0  0  0  0  0  0  0  0  0  0  0  0
   24.3634    3.0176   32.5456 C   0  0  0  0  0  0  0  0  0  0  0  0
   25.5365    3.6080   32.0767 C   0  0  0  0  0  0  0  0  0  0  0  0
   25.4840    4.5100   31.0173 C   0  0  0  0  0  0  0  0  0  0  0  0
   27.0825    5.3242   30.3860 Br  0  0  0  0  0  0  0  0  0  0  0  0
   24.2614    4.8204   30.4251 C   0  0  0  0  0  0  0  0  0  0  0  0
   24.8646   12.3120   29.6516 H   0  0  0  0  0  0  0  0  0  0  0  0
   23.2892   13.1621   29.7991 H   0  0  0  0  0  0  0  0  0  0  0  0
   24.2911   12.8674   31.2607 H   0  0  0  0  0  0  0  0  0  0  0  0
   22.9557   10.7043   29.5320 H   0  0  0  0  0  0  0  0  0  0  0  0
   23.9576   10.4095   30.9936 H   0  0  0  0  0  0  0  0  0  0  0  0
   22.5439    8.9131   30.7535 H   0  0  0  0  0  0  0  0  0  0  0  0
   19.2796    7.2334   32.7656 H   0  0  0  0  0  0  0  0  0  0  0  0
   18.0900   10.3648   33.9448 H   0  0  0  0  0  0  0  0  0  0  0  0
   19.6791    4.3800   31.2633 H   0  0  0  0  0  0  0  0  0  0  0  0
   21.1545    3.6893   30.0978 H   0  0  0  0  0  0  0  0  0  0  0  0
   21.9734    5.0292   29.2257 H   0  0  0  0  0  0  0  0  0  0  0  0
   24.4044    2.3246   33.3729 H   0  0  0  0  0  0  0  0  0  0  0  0
   26.4842    3.3660   32.5345 H   0  0  0  0  0  0  0  0  0  0  0  0
   24.2264    5.5238   29.6064 H   0  0  0  0  0  0  0  0  0  0  0  0
  1  2  1  0  0  0  0
  2  3  1  0  0  0  0
  3  4  1  0  0  0  0
  4 10  2  0  0  0  0
  4  5  1  0  0  0  0
  5  6  1  0  0  0  0
  6  7  2  0  0  0  0
  6 13  1  0  0  0  0
  7  8  1  0  0  0  0
  8  9  2  0  0  0  0
  8 10  1  0  0  0  0
 10 11  1  0  0  0  0
 11 12  3  0  0  0  0
 13 14  2  0  0  0  0
 14 15  1  0  0  0  0
 14 16  1  0  0  0  0
 16 17  1  0  0  0  0
 17 24  2  0  0  0  0
 17 18  1  0  0  0  0
 18 19  1  0  0  0  0
 18 20  2  0  0  0  0
 20 21  1  0  0  0  0
 21 22  2  0  0  0  0
 22 23  1  0  0  0  0
 22 24  1  0  0  0  0
  1 25  1  0  0  0  0
  1 26  1  0  0  0  0
  1 27  1  0  0  0  0
  2 28  1  0  0  0  0
  2 29  1  0  0  0  0
  5 30  1  0  0  0  0
  7 31  1  0  0  0  0
  9 32  1  0  0  0  0
 15 33  1  0  0  0  0
 16 34  1  0  0  0  0
 16 35  1  0  0  0  0
 20 36  1  0  0  0  0
 21 37  1  0  0  0  0
 24 38  1  0  0  0  0
M  END
> <i_m_stars>
0

> <r_user_dG.exp>
-7.512318

$$$$
18636-1
  -OEChem-05162309453D
 Structure written by MMmdl.
 38 39  0     1  0  0  0  0  0999 V2000
   23.9795   12.4589   30.2880 C   0  0  0  0  0  0  0  0  0  0  0  0
   23.2747   11.1170   30.5005 C   0  0  0  0  0  0  0  0  0  0  0  0
   22.1368   11.3490   31.3273 O   0  0  0  0  0  0  0  0  0  0  0  0
   21.3560   10.2807   31.7346 C   0  0  0  0  0  0  0  0  0  0  0  0
   21.7259    9.0407   31.3145 N   0  0  0  0  0  0  0  0  0  0  0  0
   20.9683    7.9946   31.6702 C   0  0  0  0  0  0  0  0  0  0  0  0
   19.8451    8.1072   32.4773 C   0  0  0  0  0  0  0  0  0  0  0  0
   19.4687    9.3702   32.9032 C   0  0  0  0  0  0  0  0  0  0  0  0
   18.3178    9.4274   33.6812 N   0  0  0  0  0  0  0  0  0  0  0  0
   20.2247   10.4942   32.5296 C   0  0  3  0  0  0  0  0  0  0  0  0
   19.8737   11.8560   32.9146 C   0  0  0  0  0  0  0  0  0  0  0  0
   19.6036   12.9410   33.2135 N   0  0  0  0  0  0  0  0  0  0  0  0
   21.4728    6.8392   31.1131 N   0  0  0  0  0  0  0  0  0  0  0  0
   20.9423    5.6177   31.0115 C   0  0  0  0  0  0  0  0  0  0  0  0
   19.8423    5.2962   31.4542 O   0  0  0  0  0  0  0  0  0  0  0  0
   21.7561    4.6026   30.2160 C   0  0  0  0  0  0  0  0  0  0  0  0
   23.0783    4.2283   30.8823 C   0  0  0  0  0  0  0  0  0  0  0  0
   23.1375    3.3173   31.9518 C   0  0  0  0  0  0  0  0  0  0  0  0
   21.5740    2.4705   32.6412 Br  0  0  0  0  0  0  0  0  0  0  0  0
   24.3634    3.0176   32.5456 C   0  0  0  0  0  0  0  0  0  0  0  0
   25.5365    3.6080   32.0767 C   0  0  0  0  0  0  0  0  0  0  0  0
   25.4840    4.5100   31.0173 C   0  0  0  0  0  0  0  0  0  0  0  0
   27.0825    5.3242   30.3860 Br  0  0  0  0  0  0  0  0  0  0  0  0
   24.2614    4.8204   30.4251 C   0  0  0  0  0  0  0  0  0  0  0  0
   24.8646   12.3120   29.6516 H   0  0  0  0  0  0  0  0  0  0  0  0
   23.2892   13.1621   29.7991 H   0  0  0  0  0  0  0  0  0  0  0  0
   24.2911   12.8674   31.2607 H   0  0  0  0  0  0  0  0  0  0  0  0
   22.9557   10.7043   29.5320 H   0  0  0  0  0  0  0  0  0  0  0  0
   23.9576   10.4095   30.9936 H   0  0  0  0  0  0  0  0  0  0  0  0
   18.9974    7.6860   31.9170 H   0  0  0  0  0  0  0  0  0  0  0  0
   20.0277    7.5008   33.3767 H   0  0  0  0  0  0  0  0  0  0  0  0
   18.0900   10.3648   33.9448 H   0  0  0  0  0  0  0  0  0  0  0  0
   20.8370   10.3903   33.4375 H   0  0  0  0  0  0  0  0  0  0  0  0
   21.1545    3.6893   30.0978 H   0  0  0  0  0  0  0  0  0  0  0  0
   21.9734    5.0292   29.2257 H   0  0  0  0  0  0  0  0  0  0  0  0
   24.4044    2.3246   33.3729 H   0  0  0  0  0  0  0  0  0  0  0  0
   26.4842    3.3660   32.5345 H   0  0  0  0  0  0  0  0  0  0  0  0
   24.2264    5.5238   29.6064 H   0  0  0  0  0  0  0  0  0  0  0  0
  1  2  1  0  0  0  0
  2  3  1  0  0  0  0
  3  4  1  0  0  0  0
  4 10  1  0  0  0  0
  4  5  2  0  0  0  0
  5  6  1  0  0  0  0
  6  7  1  0  0  0  0
  6 13  2  0  0  0  0
  7  8  1  0  0  0  0
  8  9  2  0  0  0  0
  8 10  1  0  0  0  0
 10 11  1  0  0  0  0
 11 12  3  0  0  0  0
 13 14  1  0  0  0  0
 14 15  2  0  0  0  0
 14 16  1  0  0  0  0
 16 17  1  0  0  0  0
 17 24  2  0  0  0  0
 17 18  1  0  0  0  0
 18 19  1  0  0  0  0
 18 20  2  0  0  0  0
 20 21  1  0  0  0  0
 21 22  2  0  0  0  0
 22 23  1  0  0  0  0
 22 24  1  0  0  0  0
  1 25  1  0  0  0  0
  1 26  1  0  0  0  0
  1 27  1  0  0  0  0
  2 28  1  0  0  0  0
  2 29  1  0  0  0  0
  7 30  1  0  0  0  0
  7 31  1  0  0  0  0
  9 32  1  0  0  0  0
 10 33  1  0  0  0  0
 16 34  1  0  0  0  0
 16 35  1  0  0  0  0
 20 36  1  0  0  0  0
 21 37  1  0  0  0  0
 24 38  1  0  0  0  0
M  END
> <i_m_stars>
0

> <r_user_dG.exp>
-7.512318

$$$$
18636-1
  -OEChem-05162309453D
 Structure written by MMmdl.
 38 39  0     1  0  0  0  0  0999 V2000
   23.9795   12.4589   30.2880 C   0  0  0  0  0  0  0  0  0  0  0  0
   23.2747   11.1170   30.5005 C   0  0  0  0  0  0  0  0  0  0  0  0
   22.1368   11.3490   31.3273 O   0  0  0  0  0  0  0  0  0  0  0  0
   21.3560   10.2807   31.7346 C   0  0  0  0  0  0  0  0  0  0  0  0
   21.7259    9.0407   31.3145 N   0  0  0  0  0  0  0  0  0  0  0  0
   20.9683    7.9946   31.6702 C   0  0  0  0  0  0  0  0  0  0  0  0
   19.8451    8.1072   32.4773 C   0  0  0  0  0  0  0  0  0  0  0  0
   19.4687    9.3702   32.9032 C   0  0  0  0  0  0  0  0  0  0  0  0
   18.3178    9.4274   33.6812 N   0  0  0  0  0  0  0  0  0  0  0  0
   20.2247   10.4942   32.5296 C   0  0  3  0  0  0  0  0  0  0  0  0
   19.8737   11.8560   32.9146 C   0  0  0  0  0  0  0  0  0  0  0  0
   19.6036   12.9410   33.2135 N   0  0  0  0  0  0  0  0  0  0  0  0
   21.4728    6.8392   31.1131 N   0  0  0  0  0  0  0  0  0  0  0  0
   20.9423    5.6177   31.0115 C   0  0  0  0  0  0  0  0  0  0  0  0
   19.8423    5.2962   31.4542 O   0  0  0  0  0  0  0  0  0  0  0  0
   21.7561    4.6026   30.2160 C   0  0  0  0  0  0  0  0  0  0  0  0
   23.0783    4.2283   30.8823 C   0  0  0  0  0  0  0  0  0  0  0  0
   23.1375    3.3173   31.9518 C   0  0  0  0  0  0  0  0  0  0  0  0
   21.5740    2.4705   32.6412 Br  0  0  0  0  0  0  0  0  0  0  0  0
   24.3634    3.0176   32.5456 C   0  0  0  0  0  0  0  0  0  0  0  0
   25.5365    3.6080   32.0767 C   0  0  0  0  0  0  0  0  0  0  0  0
   25.4840    4.5100   31.0173 C   0  0  0  0  0  0  0  0  0  0  0  0
   27.0825    5.3242   30.3860 Br  0  0  0  0  0  0  0  0  0  0  0  0
   24.2614    4.8204   30.4251 C   0  0  0  0  0  0  0  0  0  0  0  0
   24.8646   12.3120   29.6516 H   0  0  0  0  0  0  0  0  0  0  0  0
   23.2892   13.1621   29.7991 H   0  0  0  0  0  0  0  0  0  0  0  0
   24.2911   12.8674   31.2607 H   0  0  0  0  0  0  0  0  0  0  0  0
   22.9557   10.7043   29.5320 H   0  0  0  0  0  0  0  0  0  0  0  0
   23.9576   10.4095   30.9936 H   0  0  0  0  0  0  0  0  0  0  0  0
   19.2796    7.2334   32.7656 H   0  0  0  0  0  0  0  0  0  0  0  0
   18.0900   10.3648   33.9448 H   0  0  0  0  0  0  0  0  0  0  0  0
   20.8370   10.3903   33.4375 H   0  0  0  0  0  0  0  0  0  0  0  0
   22.3876    6.9307   30.7198 H   0  0  0  0  0  0  0  0  0  0  0  0
   21.1545    3.6893   30.0978 H   0  0  0  0  0  0  0  0  0  0  0  0
   21.9734    5.0292   29.2257 H   0  0  0  0  0  0  0  0  0  0  0  0
   24.4044    2.3246   33.3729 H   0  0  0  0  0  0  0  0  0  0  0  0
   26.4842    3.3660   32.5345 H   0  0  0  0  0  0  0  0  0  0  0  0
   24.2264    5.5238   29.6064 H   0  0  0  0  0  0  0  0  0  0  0  0
  1  2  1  0  0  0  0
  2  3  1  0  0  0  0
  3  4  1  0  0  0  0
  4 10  1  0  0  0  0
  4  5  2  0  0  0  0
  5  6  1  0  0  0  0
  6  7  2  0  0  0  0
  6 13  1  0  0  0  0
  7  8  1  0  0  0  0
  8  9  2  0  0  0  0
  8 10  1  0  0  0  0
 10 11  1  0  0  0  0
 11 12  3  0  0  0  0
 13 14  1  0  0  0  0
 14 15  2  0  0  0  0
 14 16  1  0  0  0  0
 16 17  1  0  0  0  0
 17 24  2  0  0  0  0
 17 18  1  0  0  0  0
 18 19  1  0  0  0  0
 18 20  2  0  0  0  0
 20 21  1  0  0  0  0
 21 22  2  0  0  0  0
 22 23  1  0  0  0  0
 22 24  1  0  0  0  0
  1 25  1  0  0  0  0
  1 26  1  0  0  0  0
  1 27  1  0  0  0  0
  2 28  1  0  0  0  0
  2 29  1  0  0  0  0
  7 30  1  0  0  0  0
  9 31  1  0  0  0  0
 10 32  1  0  0  0  0
 13 33  1  0  0  0  0
 16 34  1  0  0  0  0
 16 35  1  0  0  0  0
 20 36  1  0  0  0  0
 21 37  1  0  0  0  0
 24 38  1  0  0  0  0
M  END
> <i_m_stars>
0

> <r_user_dG.exp>
-7.512318

$$$$
18636-1
  -OEChem-05162309453D
 Structure written by MMmdl.
 38 39  0     0  0  0  0  0  0999 V2000
   23.9795   12.4589   30.2880 C   0  0  0  0  0  0  0  0  0  0  0  0
   23.2747   11.1170   30.5005 C   0  0  0  0  0  0  0  0  0  0  0  0
   22.1368   11.3490   31.3273 O   0  0  0  0  0  0  0  0  0  0  0  0
   21.3560   10.2807   31.7346 C   0  0  0  0  0  0  0  0  0  0  0  0
   21.7259    9.0407   31.3145 N   0  0  0  0  0  0  0  0  0  0  0  0
   20.9683    7.9946   31.6702 C   0  0  0  0  0  0  0  0  0  0  0  0
   19.8451    8.1072   32.4773 C   0  0  0  0  0  0  0  0  0  0  0  0
   19.4687    9.3702   32.9032 C   0  0  0  0  0  0  0  0  0  0  0  0
   18.3178    9.4274   33.6812 N   0  0  0  0  0  0  0  0  0  0  0  0
   20.2247   10.4942   32.5296 C   0  0  0  0  0  0  0  0  0  0  0  0
   19.8737   11.8560   32.9146 C   0  0  0  0  0  0  0  0  0  0  0  0
   19.6036   12.9410   33.2135 N   0  0  0  0  0  0  0  0  0  0  0  0
   21.4728    6.8392   31.1131 N   0  0  0  0  0  0  0  0  0  0  0  0
   20.9423    5.6177   31.0115 C   0  0  0  0  0  0  0  0  0  0  0  0
   19.8423    5.2962   31.4542 O   0  0  0  0  0  0  0  0  0  0  0  0
   21.7561    4.6026   30.2160 C   0  0  0  0  0  0  0  0  0  0  0  0
   23.0783    4.2283   30.8823 C   0  0  0  0  0  0  0  0  0  0  0  0
   23.1375    3.3173   31.9518 C   0  0  0  0  0  0  0  0  0  0  0  0
   21.5740    2.4705   32.6412 Br  0  0  0  0  0  0  0  0  0  0  0  0
   24.3634    3.0176   32.5456 C   0  0  0  0  0  0  0  0  0  0  0  0
   25.5365    3.6080   32.0767 C   0  0  0  0  0  0  0  0  0  0  0  0
   25.4840    4.5100   31.0173 C   0  0  0  0  0  0  0  0  0  0  0  0
   27.0825    5.3242   30.3860 Br  0  0  0  0  0  0  0  0  0  0  0  0
   24.2614    4.8204   30.4251 C   0  0  0  0  0  0  0  0  0  0  0  0
   24.8646   12.3120   29.6516 H   0  0  0  0  0  0  0  0  0  0  0  0
   23.2892   13.1621   29.7991 H   0  0  0  0  0  0  0  0  0  0  0  0
   24.2911   12.8674   31.2607 H   0  0  0  0  0  0  0  0  0  0  0  0
   22.9557   10.7043   29.5320 H   0  0  0  0  0  0  0  0  0  0  0  0
   23.9576   10.4095   30.9936 H   0  0  0  0  0  0  0  0  0  0  0  0
   18.9974    7.6860   31.9170 H   0  0  0  0  0  0  0  0  0  0  0  0
   20.0277    7.5008   33.3767 H   0  0  0  0  0  0  0  0  0  0  0  0
   18.0900   10.3648   33.9448 H   0  0  0  0  0  0  0  0  0  0  0  0
   22.3876    6.9307   30.7198 H   0  0  0  0  0  0  0  0  0  0  0  0
   21.1545    3.6893   30.0978 H   0  0  0  0  0  0  0  0  0  0  0  0
   21.9734    5.0292   29.2257 H   0  0  0  0  0  0  0  0  0  0  0  0
   24.4044    2.3246   33.3729 H   0  0  0  0  0  0  0  0  0  0  0  0
   26.4842    3.3660   32.5345 H   0  0  0  0  0  0  0  0  0  0  0  0
   24.2264    5.5238   29.6064 H   0  0  0  0  0  0  0  0  0  0  0  0
  1  2  1  0  0  0  0
  2  3  1  0  0  0  0
  3  4  1  0  0  0  0
  4 10  2  0  0  0  0
  4  5  1  0  0  0  0
  5  6  2  0  0  0  0
  6  7  1  0  0  0  0
  6 13  1  0  0  0  0
  7  8  1  0  0  0  0
  8  9  2  0  0  0  0
  8 10  1  0  0  0  0
 10 11  1  0  0  0  0
 11 12  3  0  0  0  0
 13 14  1  0  0  0  0
 14 15  2  0  0  0  0
 14 16  1  0  0  0  0
 16 17  1  0  0  0  0
 17 24  2  0  0  0  0
 17 18  1  0  0  0  0
 18 19  1  0  0  0  0
 18 20  2  0  0  0  0
 20 21  1  0  0  0  0
 21 22  2  0  0  0  0
 22 23  1  0  0  0  0
 22 24  1  0  0  0  0
  1 25  1  0  0  0  0
  1 26  1  0  0  0  0
  1 27  1  0  0  0  0
  2 28  1  0  0  0  0
  2 29  1  0  0  0  0
  7 30  1  0  0  0  0
  7 31  1  0  0  0  0
  9 32  1  0  0  0  0
 13 33  1  0  0  0  0
 16 34  1  0  0  0  0
 16 35  1  0  0  0  0
 20 36  1  0  0  0  0
 21 37  1  0  0  0  0
 24 38  1  0  0  0  0
M  END
> <i_m_stars>
0

> <r_user_dG.exp>
-7.512318

$$$$
18636-1
  -OEChem-05162309453D
 Structure written by MMmdl.
 38 39  0     1  0  0  0  0  0999 V2000
   23.9795   12.4589   30.2880 C   0  0  0  0  0  0  0  0  0  0  0  0
   23.2747   11.1170   30.5005 C   0  0  0  0  0  0  0  0  0  0  0  0
   22.1368   11.3490   31.3273 O   0  0  0  0  0  0  0  0  0  0  0  0
   21.3560   10.2807   31.7346 C   0  0  0  0  0  0  0  0  0  0  0  0
   21.7259    9.0407   31.3145 N   0  0  0  0  0  0  0  0  0  0  0  0
   20.9683    7.9946   31.6702 C   0  0  0  0  0  0  0  0  0  0  0  0
   19.8451    8.1072   32.4773 C   0  0  0  0  0  0  0  0  0  0  0  0
   19.4687    9.3702   32.9032 C   0  0  0  0  0  0  0  0  0  0  0  0
   18.3178    9.4274   33.6812 N   0  0  0  0  0  0  0  0  0  0  0  0
   20.2247   10.4942   32.5296 C   0  0  3  0  0  0  0  0  0  0  0  0
   19.8737   11.8560   32.9146 C   0  0  0  0  0  0  0  0  0  0  0  0
   19.6036   12.9410   33.2135 N   0  0  0  0  0  0  0  0  0  0  0  0
   21.4728    6.8392   31.1131 N   0  0  0  0  0  0  0  0  0  0  0  0
   20.9423    5.6177   31.0115 C   0  0  0  0  0  0  0  0  0  0  0  0
   19.8423    5.2962   31.4542 O   0  0  0  0  0  0  0  0  0  0  0  0
   21.7561    4.6026   30.2160 C   0  0  0  0  0  0  0  0  0  0  0  0
   23.0783    4.2283   30.8823 C   0  0  0  0  0  0  0  0  0  0  0  0
   23.1375    3.3173   31.9518 C   0  0  0  0  0  0  0  0  0  0  0  0
   21.5740    2.4705   32.6412 Br  0  0  0  0  0  0  0  0  0  0  0  0
   24.3634    3.0176   32.5456 C   0  0  0  0  0  0  0  0  0  0  0  0
   25.5365    3.6080   32.0767 C   0  0  0  0  0  0  0  0  0  0  0  0
   25.4840    4.5100   31.0173 C   0  0  0  0  0  0  0  0  0  0  0  0
   27.0825    5.3242   30.3860 Br  0  0  0  0  0  0  0  0  0  0  0  0
   24.2614    4.8204   30.4251 C   0  0  0  0  0  0  0  0  0  0  0  0
   24.8646   12.3120   29.6516 H   0  0  0  0  0  0  0  0  0  0  0  0
   23.2892   13.1621   29.7991 H   0  0  0  0  0  0  0  0  0  0  0  0
   24.2911   12.8674   31.2607 H   0  0  0  0  0  0  0  0  0  0  0  0
   22.9557   10.7043   29.5320 H   0  0  0  0  0  0  0  0  0  0  0  0
   23.9576   10.4095   30.9936 H   0  0  0  0  0  0  0  0  0  0  0  0
   19.2796    7.2334   32.7656 H   0  0  0  0  0  0  0  0  0  0  0  0
   18.1335   10.3768   33.9353 H   0  0  0  0  0  0  0  0  0  0  0  0
   17.5448    9.0660   33.1598 H   0  0  0  0  0  0  0  0  0  0  0  0
   20.8370   10.3903   33.4375 H   0  0  0  0  0  0  0  0  0  0  0  0
   21.1545    3.6893   30.0978 H   0  0  0  0  0  0  0  0  0  0  0  0
   21.9734    5.0292   29.2257 H   0  0  0  0  0  0  0  0  0  0  0  0
   24.4044    2.3246   33.3729 H   0  0  0  0  0  0  0  0  0  0  0  0
   26.4842    3.3660   32.5345 H   0  0  0  0  0  0  0  0  0  0  0  0
   24.2264    5.5238   29.6064 H   0  0  0  0  0  0  0  0  0  0  0  0
  1  2  1  0  0  0  0
  2  3  1  0  0  0  0
  3  4  1  0  0  0  0
  4 10  1  0  0  0  0
  4  5  2  0  0  0  0
  5  6  1  0  0  0  0
  6  7  1  0  0  0  0
  6 13  2  0  0  0  0
  7  8  2  0  0  0  0
  8  9  1  0  0  0  0
  8 10  1  0  0  0  0
 10 11  1  0  0  0  0
 11 12  3  0  0  0  0
 13 14  1  0  0  0  0
 14 15  2  0  0  0  0
 14 16  1  0  0  0  0
 16 17  1  0  0  0  0
 17 24  2  0  0  0  0
 17 18  1  0  0  0  0
 18 19  1  0  0  0  0
 18 20  2  0  0  0  0
 20 21  1  0  0  0  0
 21 22  2  0  0  0  0
 22 23  1  0  0  0  0
 22 24  1  0  0  0  0
  1 25  1  0  0  0  0
  1 26  1  0  0  0  0
  1 27  1  0  0  0  0
  2 28  1  0  0  0  0
  2 29  1  0  0  0  0
  7 30  1  0  0  0  0
  9 31  1  0  0  0  0
  9 32  1  0  0  0  0
 10 33  1  0  0  0  0
 16 34  1  0  0  0  0
 16 35  1  0  0  0  0
 20 36  1  0  0  0  0
 21 37  1  0  0  0  0
 24 38  1  0  0  0  0
M  END
> <i_m_stars>
0

> <r_user_dG.exp>
-7.512318

$$$$
18636-1
  -OEChem-05162309453D
 Structure written by MMmdl.
 38 39  0     0  0  0  0  0  0999 V2000
   23.9795   12.4589   30.2880 C   0  0  0  0  0  0  0  0  0  0  0  0
   23.2747   11.1170   30.5005 C   0  0  0  0  0  0  0  0  0  0  0  0
   22.1368   11.3490   31.3273 O   0  0  0  0  0  0  0  0  0  0  0  0
   21.3560   10.2807   31.7346 C   0  0  0  0  0  0  0  0  0  0  0  0
   21.7259    9.0407   31.3145 N   0  0  0  0  0  0  0  0  0  0  0  0
   20.9683    7.9946   31.6702 C   0  0  0  0  0  0  0  0  0  0  0  0
   19.8451    8.1072   32.4773 C   0  0  0  0  0  0  0  0  0  0  0  0
   19.4687    9.3702   32.9032 C   0  0  0  0  0  0  0  0  0  0  0  0
   18.3178    9.4274   33.6812 N   0  0  0  0  0  0  0  0  0  0  0  0
   20.2247   10.4942   32.5296 C   0  0  0  0  0  0  0  0  0  0  0  0
   19.8737   11.8560   32.9146 C   0  0  0  0  0  0  0  0  0  0  0  0
   19.6036   12.9410   33.2135 N   0  0  0  0  0  0  0  0  0  0  0  0
   21.4728    6.8392   31.1131 N   0  0  0  0  0  0  0  0  0  0  0  0
   20.9423    5.6177   31.0115 C   0  0  0  0  0  0  0  0  0  0  0  0
   19.8423    5.2962   31.4542 O   0  0  0  0  0  0  0  0  0  0  0  0
   21.7561    4.6026   30.2160 C   0  0  0  0  0  0  0  0  0  0  0  0
   23.0783    4.2283   30.8823 C   0  0  0  0  0  0  0  0  0  0  0  0
   23.1375    3.3173   31.9518 C   0  0  0  0  0  0  0  0  0  0  0  0
   21.5740    2.4705   32.6412 Br  0  0  0  0  0  0  0  0  0  0  0  0
   24.3634    3.0176   32.5456 C   0  0  0  0  0  0  0  0  0  0  0  0
   25.5365    3.6080   32.0767 C   0  0  0  0  0  0  0  0  0  0  0  0
   25.4840    4.5100   31.0173 C   0  0  0  0  0  0  0  0  0  0  0  0
   27.0825    5.3242   30.3860 Br  0  0  0  0  0  0  0  0  0  0  0  0
   24.2614    4.8204   30.4251 C   0  0  0  0  0  0  0  0  0  0  0  0
   24.8646   12.3120   29.6516 H   0  0  0  0  0  0  0  0  0  0  0  0
   23.2892   13.1621   29.7991 H   0  0  0  0  0  0  0  0  0  0  0  0
   24.2911   12.8674   31.2607 H   0  0  0  0  0  0  0  0  0  0  0  0
   22.9557   10.7043   29.5320 H   0  0  0  0  0  0  0  0  0  0  0  0
   23.9576   10.4095   30.9936 H   0  0  0  0  0  0  0  0  0  0  0  0
   18.9974    7.6860   31.9170 H   0  0  0  0  0  0  0  0  0  0  0  0
   20.0277    7.5008   33.3767 H   0  0  0  0  0  0  0  0  0  0  0  0
   18.1335   10.3768   33.9353 H   0  0  0  0  0  0  0  0  0  0  0  0
   17.5448    9.0660   33.1598 H   0  0  0  0  0  0  0  0  0  0  0  0
   21.1545    3.6893   30.0978 H   0  0  0  0  0  0  0  0  0  0  0  0
   21.9734    5.0292   29.2257 H   0  0  0  0  0  0  0  0  0  0  0  0
   24.4044    2.3246   33.3729 H   0  0  0  0  0  0  0  0  0  0  0  0
   26.4842    3.3660   32.5345 H   0  0  0  0  0  0  0  0  0  0  0  0
   24.2264    5.5238   29.6064 H   0  0  0  0  0  0  0  0  0  0  0  0
  1  2  1  0  0  0  0
  2  3  1  0  0  0  0
  3  4  1  0  0  0  0
  4 10  1  0  0  0  0
  4  5  2  0  0  0  0
  5  6  1  0  0  0  0
  6  7  1  0  0  0  0
  6 13  2  0  0  0  0
  7  8  1  0  0  0  0
  8  9  1  0  0  0  0
  8 10  2  0  0  0  0
 10 11  1  0  0  0  0
 11 12  3  0  0  0  0
 13 14  1  0  0  0  0
 14 15  2  0  0  0  0
 14 16  1  0  0  0  0
 16 17  1  0  0  0  0
 17 24  2  0  0  0  0
 17 18  1  0  0  0  0
 18 19  1  0  0  0  0
 18 20  2  0  0  0  0
 20 21  1  0  0  0  0
 21 22  2  0  0  0  0
 22 23  1  0  0  0  0
 22 24  1  0  0  0  0
  1 25  1  0  0  0  0
  1 26  1  0  0  0  0
  1 27  1  0  0  0  0
  2 28  1  0  0  0  0
  2 29  1  0  0  0  0
  7 30  1  0  0  0  0
  7 31  1  0  0  0  0
  9 32  1  0  0  0  0
  9 33  1  0  0  0  0
 16 34  1  0  0  0  0
 16 35  1  0  0  0  0
 20 36  1  0  0  0  0
 21 37  1  0  0  0  0
 24 38  1  0  0  0  0
M  END
> <i_m_stars>
0

> <r_user_dG.exp>
-7.512318

$$$$
18636-1
  -OEChem-05162309453D
 Structure written by MMmdl.
 38 39  0     0  0  0  0  0  0999 V2000
   23.9795   12.4589   30.2880 C   0  0  0  0  0  0  0  0  0  0  0  0
   23.2747   11.1170   30.5005 C   0  0  0  0  0  0  0  0  0  0  0  0
   22.1368   11.3490   31.3273 O   0  0  0  0  0  0  0  0  0  0  0  0
   21.3560   10.2807   31.7346 C   0  0  0  0  0  0  0  0  0  0  0  0
   21.7259    9.0407   31.3145 N   0  0  0  0  0  0  0  0  0  0  0  0
   20.9683    7.9946   31.6702 C   0  0  0  0  0  0  0  0  0  0  0  0
   19.8451    8.1072   32.4773 C   0  0  0  0  0  0  0  0  0  0  0  0
   19.4687    9.3702   32.9032 C   0  0  0  0  0  0  0  0  0  0  0  0
   18.3178    9.4274   33.6812 N   0  0  0  0  0  0  0  0  0  0  0  0
   20.2247   10.4942   32.5296 C   0  0  0  0  0  0  0  0  0  0  0  0
   19.8737   11.8560   32.9146 C   0  0  0  0  0  0  0  0  0  0  0  0
   19.6036   12.9410   33.2135 N   0  0  0  0  0  0  0  0  0  0  0  0
   21.4728    6.8392   31.1131 N   0  0  0  0  0  0  0  0  0  0  0  0
   20.9423    5.6177   31.0115 C   0  0  0  0  0  0  0  0  0  0  0  0
   19.8423    5.2962   31.4542 O   0  0  0  0  0  0  0  0  0  0  0  0
   21.7561    4.6026   30.2160 C   0  0  0  0  0  0  0  0  0  0  0  0
   23.0783    4.2283   30.8823 C   0  0  0  0  0  0  0  0  0  0  0  0
   23.1375    3.3173   31.9518 C   0  0  0  0  0  0  0  0  0  0  0  0
   21.5740    2.4705   32.6412 Br  0  0  0  0  0  0  0  0  0  0  0  0
   24.3634    3.0176   32.5456 C   0  0  0  0  0  0  0  0  0  0  0  0
   25.5365    3.6080   32.0767 C   0  0  0  0  0  0  0  0  0  0  0  0
   25.4840    4.5100   31.0173 C   0  0  0  0  0  0  0  0  0  0  0  0
   27.0825    5.3242   30.3860 Br  0  0  0  0  0  0  0  0  0  0  0  0
   24.2614    4.8204   30.4251 C   0  0  0  0  0  0  0  0  0  0  0  0
   24.8646   12.3120   29.6516 H   0  0  0  0  0  0  0  0  0  0  0  0
   23.2892   13.1621   29.7991 H   0  0  0  0  0  0  0  0  0  0  0  0
   24.2911   12.8674   31.2607 H   0  0  0  0  0  0  0  0  0  0  0  0
   22.9557   10.7043   29.5320 H   0  0  0  0  0  0  0  0  0  0  0  0
   23.9576   10.4095   30.9936 H   0  0  0  0  0  0  0  0  0  0  0  0
   22.5439    8.9131   30.7535 H   0  0  0  0  0  0  0  0  0  0  0  0
   18.9974    7.6860   31.9170 H   0  0  0  0  0  0  0  0  0  0  0  0
   20.0277    7.5008   33.3767 H   0  0  0  0  0  0  0  0  0  0  0  0
   18.0900   10.3648   33.9448 H   0  0  0  0  0  0  0  0  0  0  0  0
   21.1545    3.6893   30.0978 H   0  0  0  0  0  0  0  0  0  0  0  0
   21.9734    5.0292   29.2257 H   0  0  0  0  0  0  0  0  0  0  0  0
   24.4044    2.3246   33.3729 H   0  0  0  0  0  0  0  0  0  0  0  0
   26.4842    3.3660   32.5345 H   0  0  0  0  0  0  0  0  0  0  0  0
   24.2264    5.5238   29.6064 H   0  0  0  0  0  0  0  0  0  0  0  0
  1  2  1  0  0  0  0
  2  3  1  0  0  0  0
  3  4  1  0  0  0  0
  4 10  2  0  0  0  0
  4  5  1  0  0  0  0
  5  6  1  0  0  0  0
  6  7  1  0  0  0  0
  6 13  2  0  0  0  0
  7  8  1  0  0  0  0
  8  9  2  0  0  0  0
  8 10  1  0  0  0  0
 10 11  1  0  0  0  0
 11 12  3  0  0  0  0
 13 14  1  0  0  0  0
 14 15  2  0  0  0  0
 14 16  1  0  0  0  0
 16 17  1  0  0  0  0
 17 24  2  0  0  0  0
 17 18  1  0  0  0  0
 18 19  1  0  0  0  0
 18 20  2  0  0  0  0
 20 21  1  0  0  0  0
 21 22  2  0  0  0  0
 22 23  1  0  0  0  0
 22 24  1  0  0  0  0
  1 25  1  0  0  0  0
  1 26  1  0  0  0  0
  1 27  1  0  0  0  0
  2 28  1  0  0  0  0
  2 29  1  0  0  0  0
  5 30  1  0  0  0  0
  7 31  1  0  0  0  0
  7 32  1  0  0  0  0
  9 33  1  0  0  0  0
 16 34  1  0  0  0  0
 16 35  1  0  0  0  0
 20 36  1  0  0  0  0
 21 37  1  0  0  0  0
 24 38  1  0  0  0  0
M  END
> <i_m_stars>
0

> <r_user_dG.exp>
-7.512318

$$$$
18636-1
  -OEChem-05162309453D
 Structure written by MMmdl.
 38 39  0     1  0  0  0  0  0999 V2000
   23.9795   12.4589   30.2880 C   0  0  0  0  0  0  0  0  0  0  0  0
   23.2747   11.1170   30.5005 C   0  0  0  0  0  0  0  0  0  0  0  0
   22.1368   11.3490   31.3273 O   0  0  0  0  0  0  0  0  0  0  0  0
   21.3560   10.2807   31.7346 C   0  0  0  0  0  0  0  0  0  0  0  0
   21.7259    9.0407   31.3145 N   0  0  0  0  0  0  0  0  0  0  0  0
   20.9683    7.9946   31.6702 C   0  0  0  0  0  0  0  0  0  0  0  0
   19.8451    8.1072   32.4773 C   0  0  0  0  0  0  0  0  0  0  0  0
   19.4687    9.3702   32.9032 C   0  0  0  0  0  0  0  0  0  0  0  0
   18.3178    9.4274   33.6812 N   0  0  0  0  0  0  0  0  0  0  0  0
   20.2247   10.4942   32.5296 C   0  0  3  0  0  0  0  0  0  0  0  0
   19.8737   11.8560   32.9146 C   0  0  0  0  0  0  0  0  0  0  0  0
   19.6036   12.9410   33.2135 N   0  0  0  0  0  0  0  0  0  0  0  0
   21.4728    6.8392   31.1131 N   0  0  0  0  0  0  0  0  0  0  0  0
   20.9423    5.6177   31.0115 C   0  0  0  0  0  0  0  0  0  0  0  0
   19.8423    5.2962   31.4542 O   0  0  0  0  0  0  0  0  0  0  0  0
   21.7561    4.6026   30.2160 C   0  0  0  0  0  0  0  0  0  0  0  0
   23.0783    4.2283   30.8823 C   0  0  0  0  0  0  0  0  0  0  0  0
   23.1375    3.3173   31.9518 C   0  0  0  0  0  0  0  0  0  0  0  0
   21.5740    2.4705   32.6412 Br  0  0  0  0  0  0  0  0  0  0  0  0
   24.3634    3.0176   32.5456 C   0  0  0  0  0  0  0  0  0  0  0  0
   25.5365    3.6080   32.0767 C   0  0  0  0  0  0  0  0  0  0  0  0
   25.4840    4.5100   31.0173 C   0  0  0  0  0  0  0  0  0  0  0  0
   27.0825    5.3242   30.3860 Br  0  0  0  0  0  0  0  0  0  0  0  0
   24.2614    4.8204   30.4251 C   0  0  0  0  0  0  0  0  0  0  0  0
   24.8646   12.3120   29.6516 H   0  0  0  0  0  0  0  0  0  0  0  0
   23.2892   13.1621   29.7991 H   0  0  0  0  0  0  0  0  0  0  0  0
   24.2911   12.8674   31.2607 H   0  0  0  0  0  0  0  0  0  0  0  0
   22.9557   10.7043   29.5320 H   0  0  0  0  0  0  0  0  0  0  0  0
   23.9576   10.4095   30.9936 H   0  0  0  0  0  0  0  0  0  0  0  0
   19.2796    7.2334   32.7656 H   0  0  0  0  0  0  0  0  0  0  0  0
   18.0900   10.3648   33.9448 H   0  0  0  0  0  0  0  0  0  0  0  0
   20.8370   10.3903   33.4375 H   0  0  0  0  0  0  0  0  0  0  0  0
   19.6791    4.3800   31.2633 H   0  0  0  0  0  0  0  0  0  0  0  0
   21.1545    3.6893   30.0978 H   0  0  0  0  0  0  0  0  0  0  0  0
   21.9734    5.0292   29.2257 H   0  0  0  0  0  0  0  0  0  0  0  0
   24.4044    2.3246   33.3729 H   0  0  0  0  0  0  0  0  0  0  0  0
   26.4842    3.3660   32.5345 H   0  0  0  0  0  0  0  0  0  0  0  0
   24.2264    5.5238   29.6064 H   0  0  0  0  0  0  0  0  0  0  0  0
  1  2  1  0  0  0  0
  2  3  1  0  0  0  0
  3  4  1  0  0  0  0
  4 10  1  0  0  0  0
  4  5  2  0  0  0  0
  5  6  1  0  0  0  0
  6  7  2  0  0  0  0
  6 13  1  0  0  0  0
  7  8  1  0  0  0  0
  8  9  2  0  0  0  0
  8 10  1  0  0  0  0
 10 11  1  0  0  0  0
 11 12  3  0  0  0  0
 13 14  2  0  0  0  0
 14 15  1  0  0  0  0
 14 16  1  0  0  0  0
 16 17  1  0  0  0  0
 17 24  2  0  0  0  0
 17 18  1  0  0  0  0
 18 19  1  0  0  0  0
 18 20  2  0  0  0  0
 20 21  1  0  0  0  0
 21 22  2  0  0  0  0
 22 23  1  0  0  0  0
 22 24  1  0  0  0  0
  1 25  1  0  0  0  0
  1 26  1  0  0  0  0
  1 27  1  0  0  0  0
  2 28  1  0  0  0  0
  2 29  1  0  0  0  0
  7 30  1  0  0  0  0
  9 31  1  0  0  0  0
 10 32  1  0  0  0  0
 15 33  1  0  0  0  0
 16 34  1  0  0  0  0
 16 35  1  0  0  0  0
 20 36  1  0  0  0  0
 21 37  1  0  0  0  0
 24 38  1  0  0  0  0
M  END
> <i_m_stars>
0

> <r_user_dG.exp>
-7.512318

$$$$
18636-1
  -OEChem-05162309453D
 Structure written by MMmdl.
 38 39  0     0  0  0  0  0  0999 V2000
   23.9795   12.4589   30.2880 C   0  0  0  0  0  0  0  0  0  0  0  0
   23.2747   11.1170   30.5005 C   0  0  0  0  0  0  0  0  0  0  0  0
   22.1368   11.3490   31.3273 O   0  0  0  0  0  0  0  0  0  0  0  0
   21.3560   10.2807   31.7346 C   0  0  0  0  0  0  0  0  0  0  0  0
   21.7259    9.0407   31.3145 N   0  0  0  0  0  0  0  0  0  0  0  0
   20.9683    7.9946   31.6702 C   0  0  0  0  0  0  0  0  0  0  0  0
   19.8451    8.1072   32.4773 C   0  0  0  0  0  0  0  0  0  0  0  0
   19.4687    9.3702   32.9032 C   0  0  0  0  0  0  0  0  0  0  0  0
   18.3178    9.4274   33.6812 N   0  0  0  0  0  0  0  0  0  0  0  0
   20.2247   10.4942   32.5296 C   0  0  0  0  0  0  0  0  0  0  0  0
   19.8737   11.8560   32.9146 C   0  0  0  0  0  0  0  0  0  0  0  0
   19.6036   12.9410   33.2135 N   0  0  0  0  0  0  0  0  0  0  0  0
   21.4728    6.8392   31.1131 N   0  0  0  0  0  0  0  0  0  0  0  0
   20.9423    5.6177   31.0115 C   0  0  0  0  0  0  0  0  0  0  0  0
   19.8423    5.2962   31.4542 O   0  0  0  0  0  0  0  0  0  0  0  0
   21.7561    4.6026   30.2160 C   0  0  0  0  0  0  0  0  0  0  0  0
   23.0783    4.2283   30.8823 C   0  0  0  0  0  0  0  0  0  0  0  0
   23.1375    3.3173   31.9518 C   0  0  0  0  0  0  0  0  0  0  0  0
   21.5740    2.4705   32.6412 Br  0  0  0  0  0  0  0  0  0  0  0  0
   24.3634    3.0176   32.5456 C   0  0  0  0  0  0  0  0  0  0  0  0
   25.5365    3.6080   32.0767 C   0  0  0  0  0  0  0  0  0  0  0  0
   25.4840    4.5100   31.0173 C   0  0  0  0  0  0  0  0  0  0  0  0
   27.0825    5.3242   30.3860 Br  0  0  0  0  0  0  0  0  0  0  0  0
   24.2614    4.8204   30.4251 C   0  0  0  0  0  0  0  0  0  0  0  0
   24.8646   12.3120   29.6516 H   0  0  0  0  0  0  0  0  0  0  0  0
   23.2892   13.1621   29.7991 H   0  0  0  0  0  0  0  0  0  0  0  0
   24.2911   12.8674   31.2607 H   0  0  0  0  0  0  0  0  0  0  0  0
   22.9557   10.7043   29.5320 H   0  0  0  0  0  0  0  0  0  0  0  0
   23.9576   10.4095   30.9936 H   0  0  0  0  0  0  0  0  0  0  0  0
   18.9974    7.6860   31.9170 H   0  0  0  0  0  0  0  0  0  0  0  0
   20.0277    7.5008   33.3767 H   0  0  0  0  0  0  0  0  0  0  0  0
   18.0900   10.3648   33.9448 H   0  0  0  0  0  0  0  0  0  0  0  0
   19.6791    4.3800   31.2633 H   0  0  0  0  0  0  0  0  0  0  0  0
   21.1545    3.6893   30.0978 H   0  0  0  0  0  0  0  0  0  0  0  0
   21.9734    5.0292   29.2257 H   0  0  0  0  0  0  0  0  0  0  0  0
   24.4044    2.3246   33.3729 H   0  0  0  0  0  0  0  0  0  0  0  0
   26.4842    3.3660   32.5345 H   0  0  0  0  0  0  0  0  0  0  0  0
   24.2264    5.5238   29.6064 H   0  0  0  0  0  0  0  0  0  0  0  0
  1  2  1  0  0  0  0
  2  3  1  0  0  0  0
  3  4  1  0  0  0  0
  4 10  2  0  0  0  0
  4  5  1  0  0  0  0
  5  6  2  0  0  0  0
  6  7  1  0  0  0  0
  6 13  1  0  0  0  0
  7  8  1  0  0  0  0
  8  9  2  0  0  0  0
  8 10  1  0  0  0  0
 10 11  1  0  0  0  0
 11 12  3  0  0  0  0
 13 14  2  0  0  0  0
 14 15  1  0  0  0  0
 14 16  1  0  0  0  0
 16 17  1  0  0  0  0
 17 24  2  0  0  0  0
 17 18  1  0  0  0  0
 18 19  1  0  0  0  0
 18 20  2  0  0  0  0
 20 21  1  0  0  0  0
 21 22  2  0  0  0  0
 22 23  1  0  0  0  0
 22 24  1  0  0  0  0
  1 25  1  0  0  0  0
  1 26  1  0  0  0  0
  1 27  1  0  0  0  0
  2 28  1  0  0  0  0
  2 29  1  0  0  0  0
  7 30  1  0  0  0  0
  7 31  1  0  0  0  0
  9 32  1  0  0  0  0
 15 33  1  0  0  0  0
 16 34  1  0  0  0  0
 16 35  1  0  0  0  0
 20 36  1  0  0  0  0
 21 37  1  0  0  0  0
 24 38  1  0  0  0  0
M  END
> <i_m_stars>
0

> <r_user_dG.exp>
-7.512318

$$$$
