18633-1
  -OEChem-05162309453D
 Structure written by MMmdl.
 42 43  0     0  0  0  0  0  0999 V2000
   24.0387   12.2179   30.2669 C   0  0  0  0  0  0  0  0  0  0  0  0
   23.3044   10.9016   30.5332 C   0  0  0  0  0  0  0  0  0  0  0  0
   22.1563   11.1951   31.3256 O   0  0  0  0  0  0  0  0  0  0  0  0
   21.3390   10.1633   31.7540 C   0  0  0  0  0  0  0  0  0  0  0  0
   21.6823    8.8992   31.3837 N   0  0  0  0  0  0  0  0  0  0  0  0
   20.8867    7.8880   31.7599 C   0  0  0  0  0  0  0  0  0  0  0  0
   19.7522    8.0618   32.5365 C   0  0  0  0  0  0  0  0  0  0  0  0
   19.4083    9.3453   32.9173 C   0  0  0  0  0  0  0  0  0  0  0  0
   18.2524    9.4490   33.6800 N   0  0  0  0  0  0  0  0  0  0  0  0
   20.2035   10.4351   32.5260 C   0  0  0  0  0  0  0  0  0  0  0  0
   19.8910   11.8152   32.8794 C   0  0  0  0  0  0  0  0  0  0  0  0
   19.6510   12.9138   33.1554 N   0  0  0  0  0  0  0  0  0  0  0  0
   21.3748    6.6763   31.3202 N   0  0  0  0  0  0  0  0  0  0  0  0
   20.7393    5.5159   31.1264 C   0  0  0  0  0  0  0  0  0  0  0  0
   19.5238    5.3827   31.2542 O   0  0  0  0  0  0  0  0  0  0  0  0
   21.5737    4.2933   30.7142 C   0  0  0  0  0  0  0  0  0  0  0  0
   23.0754    4.5499   30.5850 C   0  0  0  0  0  0  0  0  0  0  0  0
   23.9617    4.0062   31.5176 C   0  0  0  0  0  0  0  0  0  0  0  0
   25.3276    4.2685   31.4147 C   0  0  0  0  0  0  0  0  0  0  0  0
   25.8300    5.0672   30.3878 C   0  0  0  0  0  0  0  0  0  0  0  0
   24.9363    5.6034   29.4476 C   0  0  0  0  0  0  0  0  0  0  0  0
   23.5696    5.3480   29.5477 C   0  0  0  0  0  0  0  0  0  0  0  0
   27.1928    5.2764   30.3815 O   0  0  0  0  0  0  0  0  0  0  0  0
   27.7622    6.0804   29.3514 C   0  0  0  0  0  0  0  0  0  0  0  0
   24.9321   12.0228   29.6556 H   0  0  0  0  0  0  0  0  0  0  0  0
   23.3710   12.9080   29.7303 H   0  0  0  0  0  0  0  0  0  0  0  0
   24.3405   12.6693   31.2235 H   0  0  0  0  0  0  0  0  0  0  0  0
   22.9952   10.4464   29.5807 H   0  0  0  0  0  0  0  0  0  0  0  0
   23.9647   10.2076   31.0739 H   0  0  0  0  0  0  0  0  0  0  0  0
   19.1518    7.2157   32.8367 H   0  0  0  0  0  0  0  0  0  0  0  0
   18.0864   10.4090   33.9057 H   0  0  0  0  0  0  0  0  0  0  0  0
   17.4771    9.0899   33.1605 H   0  0  0  0  0  0  0  0  0  0  0  0
   22.3534    6.6630   31.1148 H   0  0  0  0  0  0  0  0  0  0  0  0
   21.4254    3.5083   31.4704 H   0  0  0  0  0  0  0  0  0  0  0  0
   21.2029    3.9395   29.7409 H   0  0  0  0  0  0  0  0  0  0  0  0
   23.5897    3.3833   32.3176 H   0  0  0  0  0  0  0  0  0  0  0  0
   26.0064    3.8468   32.1412 H   0  0  0  0  0  0  0  0  0  0  0  0
   25.3098    6.2176   28.6416 H   0  0  0  0  0  0  0  0  0  0  0  0
   22.8894    5.7680   28.8215 H   0  0  0  0  0  0  0  0  0  0  0  0
   28.8510    6.1440   29.4948 H   0  0  0  0  0  0  0  0  0  0  0  0
   27.5473    5.6278   28.3721 H   0  0  0  0  0  0  0  0  0  0  0  0
   27.3275    7.0901   29.3920 H   0  0  0  0  0  0  0  0  0  0  0  0
  1  2  1  0  0  0  0
  2  3  1  0  0  0  0
  3  4  1  0  0  0  0
  4 10  2  0  0  0  0
  4  5  1  0  0  0  0
  5  6  2  0  0  0  0
  6  7  1  0  0  0  0
  6 13  1  0  0  0  0
  7  8  2  0  0  0  0
  8  9  1  0  0  0  0
  8 10  1  0  0  0  0
 10 11  1  0  0  0  0
 11 12  3  0  0  0  0
 13 14  1  0  0  0  0
 14 15  2  0  0  0  0
 14 16  1  0  0  0  0
 16 17  1  0  0  0  0
 17 22  2  0  0  0  0
 17 18  1  0  0  0  0
 18 19  2  0  0  0  0
 19 20  1  0  0  0  0
 20 21  2  0  0  0  0
 20 23  1  0  0  0  0
 21 22  1  0  0  0  0
 23 24  1  0  0  0  0
  1 25  1  0  0  0  0
  1 26  1  0  0  0  0
  1 27  1  0  0  0  0
  2 28  1  0  0  0  0
  2 29  1  0  0  0  0
  7 30  1  0  0  0  0
  9 31  1  0  0  0  0
  9 32  1  0  0  0  0
 13 33  1  0  0  0  0
 16 34  1  0  0  0  0
 16 35  1  0  0  0  0
 18 36  1  0  0  0  0
 19 37  1  0  0  0  0
 21 38  1  0  0  0  0
 22 39  1  0  0  0  0
 24 40  1  0  0  0  0
 24 41  1  0  0  0  0
 24 42  1  0  0  0  0
M  END
> <i_m_stars>
0

> <r_user_dG.exp>
-9.174299

$$$$
18633-1
  -OEChem-05162309453D
 Structure written by MMmdl.
 42 43  0     0  0  0  0  0  0999 V2000
   24.0387   12.2179   30.2669 C   0  0  0  0  0  0  0  0  0  0  0  0
   23.3044   10.9016   30.5332 C   0  0  0  0  0  0  0  0  0  0  0  0
   22.1563   11.1951   31.3256 O   0  0  0  0  0  0  0  0  0  0  0  0
   21.3390   10.1633   31.7540 C   0  0  0  0  0  0  0  0  0  0  0  0
   21.6823    8.8992   31.3837 N   0  0  0  0  0  0  0  0  0  0  0  0
   20.8867    7.8880   31.7599 C   0  0  0  0  0  0  0  0  0  0  0  0
   19.7522    8.0618   32.5365 C   0  0  0  0  0  0  0  0  0  0  0  0
   19.4083    9.3453   32.9173 C   0  0  0  0  0  0  0  0  0  0  0  0
   18.2524    9.4490   33.6800 N   0  0  0  0  0  0  0  0  0  0  0  0
   20.2035   10.4351   32.5260 C   0  0  0  0  0  0  0  0  0  0  0  0
   19.8910   11.8152   32.8794 C   0  0  0  0  0  0  0  0  0  0  0  0
   19.6510   12.9138   33.1554 N   0  0  0  0  0  0  0  0  0  0  0  0
   21.3748    6.6763   31.3202 N   0  0  0  0  0  0  0  0  0  0  0  0
   20.7393    5.5159   31.1264 C   0  0  0  0  0  0  0  0  0  0  0  0
   19.5238    5.3827   31.2542 O   0  0  0  0  0  0  0  0  0  0  0  0
   21.5737    4.2933   30.7142 C   0  0  0  0  0  0  0  0  0  0  0  0
   23.0754    4.5499   30.5850 C   0  0  0  0  0  0  0  0  0  0  0  0
   23.9617    4.0062   31.5176 C   0  0  0  0  0  0  0  0  0  0  0  0
   25.3276    4.2685   31.4147 C   0  0  0  0  0  0  0  0  0  0  0  0
   25.8300    5.0672   30.3878 C   0  0  0  0  0  0  0  0  0  0  0  0
   24.9363    5.6034   29.4476 C   0  0  0  0  0  0  0  0  0  0  0  0
   23.5696    5.3480   29.5477 C   0  0  0  0  0  0  0  0  0  0  0  0
   27.1928    5.2764   30.3815 O   0  0  0  0  0  0  0  0  0  0  0  0
   27.7622    6.0804   29.3514 C   0  0  0  0  0  0  0  0  0  0  0  0
   24.9321   12.0228   29.6556 H   0  0  0  0  0  0  0  0  0  0  0  0
   23.3710   12.9080   29.7303 H   0  0  0  0  0  0  0  0  0  0  0  0
   24.3405   12.6693   31.2235 H   0  0  0  0  0  0  0  0  0  0  0  0
   22.9952   10.4464   29.5807 H   0  0  0  0  0  0  0  0  0  0  0  0
   23.9647   10.2076   31.0739 H   0  0  0  0  0  0  0  0  0  0  0  0
   19.1518    7.2157   32.8367 H   0  0  0  0  0  0  0  0  0  0  0  0
   18.0864   10.4090   33.9057 H   0  0  0  0  0  0  0  0  0  0  0  0
   17.4771    9.0899   33.1605 H   0  0  0  0  0  0  0  0  0  0  0  0
   19.2824    4.4824   31.0708 H   0  0  0  0  0  0  0  0  0  0  0  0
   21.4254    3.5083   31.4704 H   0  0  0  0  0  0  0  0  0  0  0  0
   21.2029    3.9395   29.7409 H   0  0  0  0  0  0  0  0  0  0  0  0
   23.5897    3.3833   32.3176 H   0  0  0  0  0  0  0  0  0  0  0  0
   26.0064    3.8468   32.1412 H   0  0  0  0  0  0  0  0  0  0  0  0
   25.3098    6.2176   28.6416 H   0  0  0  0  0  0  0  0  0  0  0  0
   22.8894    5.7680   28.8215 H   0  0  0  0  0  0  0  0  0  0  0  0
   28.8510    6.1440   29.4948 H   0  0  0  0  0  0  0  0  0  0  0  0
   27.5473    5.6278   28.3721 H   0  0  0  0  0  0  0  0  0  0  0  0
   27.3275    7.0901   29.3920 H   0  0  0  0  0  0  0  0  0  0  0  0
  1  2  1  0  0  0  0
  2  3  1  0  0  0  0
  3  4  1  0  0  0  0
  4 10  2  0  0  0  0
  4  5  1  0  0  0  0
  5  6  2  0  0  0  0
  6  7  1  0  0  0  0
  6 13  1  0  0  0  0
  7  8  2  0  0  0  0
  8  9  1  0  0  0  0
  8 10  1  0  0  0  0
 10 11  1  0  0  0  0
 11 12  3  0  0  0  0
 13 14  2  0  0  0  0
 14 15  1  0  0  0  0
 14 16  1  0  0  0  0
 16 17  1  0  0  0  0
 17 22  2  0  0  0  0
 17 18  1  0  0  0  0
 18 19  2  0  0  0  0
 19 20  1  0  0  0  0
 20 21  2  0  0  0  0
 20 23  1  0  0  0  0
 21 22  1  0  0  0  0
 23 24  1  0  0  0  0
  1 25  1  0  0  0  0
  1 26  1  0  0  0  0
  1 27  1  0  0  0  0
  2 28  1  0  0  0  0
  2 29  1  0  0  0  0
  7 30  1  0  0  0  0
  9 31  1  0  0  0  0
  9 32  1  0  0  0  0
 15 33  1  0  0  0  0
 16 34  1  0  0  0  0
 16 35  1  0  0  0  0
 18 36  1  0  0  0  0
 19 37  1  0  0  0  0
 21 38  1  0  0  0  0
 22 39  1  0  0  0  0
 24 40  1  0  0  0  0
 24 41  1  0  0  0  0
 24 42  1  0  0  0  0
M  END
> <i_m_stars>
0

> <r_user_dG.exp>
-9.174299

$$$$
18633-1
  -OEChem-05162309453D
 Structure written by MMmdl.
 42 43  0     0  0  0  0  0  0999 V2000
   24.0387   12.2179   30.2669 C   0  0  0  0  0  0  0  0  0  0  0  0
   23.3044   10.9016   30.5332 C   0  0  0  0  0  0  0  0  0  0  0  0
   22.1563   11.1951   31.3256 O   0  0  0  0  0  0  0  0  0  0  0  0
   21.3390   10.1633   31.7540 C   0  0  0  0  0  0  0  0  0  0  0  0
   21.6823    8.8992   31.3837 N   0  0  0  0  0  0  0  0  0  0  0  0
   20.8867    7.8880   31.7599 C   0  0  0  0  0  0  0  0  0  0  0  0
   19.7522    8.0618   32.5365 C   0  0  0  0  0  0  0  0  0  0  0  0
   19.4083    9.3453   32.9173 C   0  0  0  0  0  0  0  0  0  0  0  0
   18.2524    9.4490   33.6800 N   0  0  0  0  0  0  0  0  0  0  0  0
   20.2035   10.4351   32.5260 C   0  0  0  0  0  0  0  0  0  0  0  0
   19.8910   11.8152   32.8794 C   0  0  0  0  0  0  0  0  0  0  0  0
   19.6510   12.9138   33.1554 N   0  0  0  0  0  0  0  0  0  0  0  0
   21.3748    6.6763   31.3202 N   0  0  0  0  0  0  0  0  0  0  0  0
   20.7393    5.5159   31.1264 C   0  0  0  0  0  0  0  0  0  0  0  0
   19.5238    5.3827   31.2542 O   0  0  0  0  0  0  0  0  0  0  0  0
   21.5737    4.2933   30.7142 C   0  0  0  0  0  0  0  0  0  0  0  0
   23.0754    4.5499   30.5850 C   0  0  0  0  0  0  0  0  0  0  0  0
   23.9617    4.0062   31.5176 C   0  0  0  0  0  0  0  0  0  0  0  0
   25.3276    4.2685   31.4147 C   0  0  0  0  0  0  0  0  0  0  0  0
   25.8300    5.0672   30.3878 C   0  0  0  0  0  0  0  0  0  0  0  0
   24.9363    5.6034   29.4476 C   0  0  0  0  0  0  0  0  0  0  0  0
   23.5696    5.3480   29.5477 C   0  0  0  0  0  0  0  0  0  0  0  0
   27.1928    5.2764   30.3815 O   0  0  0  0  0  0  0  0  0  0  0  0
   27.7622    6.0804   29.3514 C   0  0  0  0  0  0  0  0  0  0  0  0
   24.9321   12.0228   29.6556 H   0  0  0  0  0  0  0  0  0  0  0  0
   23.3710   12.9080   29.7303 H   0  0  0  0  0  0  0  0  0  0  0  0
   24.3405   12.6693   31.2235 H   0  0  0  0  0  0  0  0  0  0  0  0
   22.9952   10.4464   29.5807 H   0  0  0  0  0  0  0  0  0  0  0  0
   23.9647   10.2076   31.0739 H   0  0  0  0  0  0  0  0  0  0  0  0
   22.5072    8.7292   30.8446 H   0  0  0  0  0  0  0  0  0  0  0  0
   19.1518    7.2157   32.8367 H   0  0  0  0  0  0  0  0  0  0  0  0
   18.0472   10.3973   33.9222 H   0  0  0  0  0  0  0  0  0  0  0  0
   22.3534    6.6630   31.1148 H   0  0  0  0  0  0  0  0  0  0  0  0
   21.4254    3.5083   31.4704 H   0  0  0  0  0  0  0  0  0  0  0  0
   21.2029    3.9395   29.7409 H   0  0  0  0  0  0  0  0  0  0  0  0
   23.5897    3.3833   32.3176 H   0  0  0  0  0  0  0  0  0  0  0  0
   26.0064    3.8468   32.1412 H   0  0  0  0  0  0  0  0  0  0  0  0
   25.3098    6.2176   28.6416 H   0  0  0  0  0  0  0  0  0  0  0  0
   22.8894    5.7680   28.8215 H   0  0  0  0  0  0  0  0  0  0  0  0
   28.8510    6.1440   29.4948 H   0  0  0  0  0  0  0  0  0  0  0  0
   27.5473    5.6278   28.3721 H   0  0  0  0  0  0  0  0  0  0  0  0
   27.3275    7.0901   29.3920 H   0  0  0  0  0  0  0  0  0  0  0  0
  1  2  1  0  0  0  0
  2  3  1  0  0  0  0
  3  4  1  0  0  0  0
  4 10  2  0  0  0  0
  4  5  1  0  0  0  0
  5  6  1  0  0  0  0
  6  7  2  0  0  0  0
  6 13  1  0  0  0  0
  7  8  1  0  0  0  0
  8  9  2  0  0  0  0
  8 10  1  0  0  0  0
 10 11  1  0  0  0  0
 11 12  3  0  0  0  0
 13 14  1  0  0  0  0
 14 15  2  0  0  0  0
 14 16  1  0  0  0  0
 16 17  1  0  0  0  0
 17 22  2  0  0  0  0
 17 18  1  0  0  0  0
 18 19  2  0  0  0  0
 19 20  1  0  0  0  0
 20 21  2  0  0  0  0
 20 23  1  0  0  0  0
 21 22  1  0  0  0  0
 23 24  1  0  0  0  0
  1 25  1  0  0  0  0
  1 26  1  0  0  0  0
  1 27  1  0  0  0  0
  2 28  1  0  0  0  0
  2 29  1  0  0  0  0
  5 30  1  0  0  0  0
  7 31  1  0  0  0  0
  9 32  1  0  0  0  0
 13 33  1  0  0  0  0
 16 34  1  0  0  0  0
 16 35  1  0  0  0  0
 18 36  1  0  0  0  0
 19 37  1  0  0  0  0
 21 38  1  0  0  0  0
 22 39  1  0  0  0  0
 24 40  1  0  0  0  0
 24 41  1  0  0  0  0
 24 42  1  0  0  0  0
M  END
> <i_m_stars>
0

> <r_user_dG.exp>
-9.174299

$$$$
18633-1
  -OEChem-05162309453D
 Structure written by MMmdl.
 42 43  0     0  0  0  0  0  0999 V2000
   24.0387   12.2179   30.2669 C   0  0  0  0  0  0  0  0  0  0  0  0
   23.3044   10.9016   30.5332 C   0  0  0  0  0  0  0  0  0  0  0  0
   22.1563   11.1951   31.3256 O   0  0  0  0  0  0  0  0  0  0  0  0
   21.3390   10.1633   31.7540 C   0  0  0  0  0  0  0  0  0  0  0  0
   21.6823    8.8992   31.3837 N   0  0  0  0  0  0  0  0  0  0  0  0
   20.8867    7.8880   31.7599 C   0  0  0  0  0  0  0  0  0  0  0  0
   19.7522    8.0618   32.5365 C   0  0  0  0  0  0  0  0  0  0  0  0
   19.4083    9.3453   32.9173 C   0  0  0  0  0  0  0  0  0  0  0  0
   18.2524    9.4490   33.6800 N   0  0  0  0  0  0  0  0  0  0  0  0
   20.2035   10.4351   32.5260 C   0  0  0  0  0  0  0  0  0  0  0  0
   19.8910   11.8152   32.8794 C   0  0  0  0  0  0  0  0  0  0  0  0
   19.6510   12.9138   33.1554 N   0  0  0  0  0  0  0  0  0  0  0  0
   21.3748    6.6763   31.3202 N   0  0  0  0  0  0  0  0  0  0  0  0
   20.7393    5.5159   31.1264 C   0  0  0  0  0  0  0  0  0  0  0  0
   19.5238    5.3827   31.2542 O   0  0  0  0  0  0  0  0  0  0  0  0
   21.5737    4.2933   30.7142 C   0  0  0  0  0  0  0  0  0  0  0  0
   23.0754    4.5499   30.5850 C   0  0  0  0  0  0  0  0  0  0  0  0
   23.9617    4.0062   31.5176 C   0  0  0  0  0  0  0  0  0  0  0  0
   25.3276    4.2685   31.4147 C   0  0  0  0  0  0  0  0  0  0  0  0
   25.8300    5.0672   30.3878 C   0  0  0  0  0  0  0  0  0  0  0  0
   24.9363    5.6034   29.4476 C   0  0  0  0  0  0  0  0  0  0  0  0
   23.5696    5.3480   29.5477 C   0  0  0  0  0  0  0  0  0  0  0  0
   27.1928    5.2764   30.3815 O   0  0  0  0  0  0  0  0  0  0  0  0
   27.7622    6.0804   29.3514 C   0  0  0  0  0  0  0  0  0  0  0  0
   24.9321   12.0228   29.6556 H   0  0  0  0  0  0  0  0  0  0  0  0
   23.3710   12.9080   29.7303 H   0  0  0  0  0  0  0  0  0  0  0  0
   24.3405   12.6693   31.2235 H   0  0  0  0  0  0  0  0  0  0  0  0
   22.9952   10.4464   29.5807 H   0  0  0  0  0  0  0  0  0  0  0  0
   23.9647   10.2076   31.0739 H   0  0  0  0  0  0  0  0  0  0  0  0
   22.5072    8.7292   30.8446 H   0  0  0  0  0  0  0  0  0  0  0  0
   19.1518    7.2157   32.8367 H   0  0  0  0  0  0  0  0  0  0  0  0
   18.0864   10.4090   33.9057 H   0  0  0  0  0  0  0  0  0  0  0  0
   17.4771    9.0899   33.1605 H   0  0  0  0  0  0  0  0  0  0  0  0
   21.4254    3.5083   31.4704 H   0  0  0  0  0  0  0  0  0  0  0  0
   21.2029    3.9395   29.7409 H   0  0  0  0  0  0  0  0  0  0  0  0
   23.5897    3.3833   32.3176 H   0  0  0  0  0  0  0  0  0  0  0  0
   26.0064    3.8468   32.1412 H   0  0  0  0  0  0  0  0  0  0  0  0
   25.3098    6.2176   28.6416 H   0  0  0  0  0  0  0  0  0  0  0  0
   22.8894    5.7680   28.8215 H   0  0  0  0  0  0  0  0  0  0  0  0
   28.8510    6.1440   29.4948 H   0  0  0  0  0  0  0  0  0  0  0  0
   27.5473    5.6278   28.3721 H   0  0  0  0  0  0  0  0  0  0  0  0
   27.3275    7.0901   29.3920 H   0  0  0  0  0  0  0  0  0  0  0  0
  1  2  1  0  0  0  0
  2  3  1  0  0  0  0
  3  4  1  0  0  0  0
  4 10  2  0  0  0  0
  4  5  1  0  0  0  0
  5  6  1  0  0  0  0
  6  7  1  0  0  0  0
  6 13  2  0  0  0  0
  7  8  2  0  0  0  0
  8  9  1  0  0  0  0
  8 10  1  0  0  0  0
 10 11  1  0  0  0  0
 11 12  3  0  0  0  0
 13 14  1  0  0  0  0
 14 15  2  0  0  0  0
 14 16  1  0  0  0  0
 16 17  1  0  0  0  0
 17 22  2  0  0  0  0
 17 18  1  0  0  0  0
 18 19  2  0  0  0  0
 19 20  1  0  0  0  0
 20 21  2  0  0  0  0
 20 23  1  0  0  0  0
 21 22  1  0  0  0  0
 23 24  1  0  0  0  0
  1 25  1  0  0  0  0
  1 26  1  0  0  0  0
  1 27  1  0  0  0  0
  2 28  1  0  0  0  0
  2 29  1  0  0  0  0
  5 30  1  0  0  0  0
  7 31  1  0  0  0  0
  9 32  1  0  0  0  0
  9 33  1  0  0  0  0
 16 34  1  0  0  0  0
 16 35  1  0  0  0  0
 18 36  1  0  0  0  0
 19 37  1  0  0  0  0
 21 38  1  0  0  0  0
 22 39  1  0  0  0  0
 24 40  1  0  0  0  0
 24 41  1  0  0  0  0
 24 42  1  0  0  0  0
M  END
> <i_m_stars>
0

> <r_user_dG.exp>
-9.174299

$$$$
18633-1
  -OEChem-05162309453D
 Structure written by MMmdl.
 42 43  0     0  0  0  0  0  0999 V2000
   24.0387   12.2179   30.2669 C   0  0  0  0  0  0  0  0  0  0  0  0
   23.3044   10.9016   30.5332 C   0  0  0  0  0  0  0  0  0  0  0  0
   22.1563   11.1951   31.3256 O   0  0  0  0  0  0  0  0  0  0  0  0
   21.3390   10.1633   31.7540 C   0  0  0  0  0  0  0  0  0  0  0  0
   21.6823    8.8992   31.3837 N   0  0  0  0  0  0  0  0  0  0  0  0
   20.8867    7.8880   31.7599 C   0  0  0  0  0  0  0  0  0  0  0  0
   19.7522    8.0618   32.5365 C   0  0  0  0  0  0  0  0  0  0  0  0
   19.4083    9.3453   32.9173 C   0  0  0  0  0  0  0  0  0  0  0  0
   18.2524    9.4490   33.6800 N   0  0  0  0  0  0  0  0  0  0  0  0
   20.2035   10.4351   32.5260 C   0  0  0  0  0  0  0  0  0  0  0  0
   19.8910   11.8152   32.8794 C   0  0  0  0  0  0  0  0  0  0  0  0
   19.6510   12.9138   33.1554 N   0  0  0  0  0  0  0  0  0  0  0  0
   21.3748    6.6763   31.3202 N   0  0  0  0  0  0  0  0  0  0  0  0
   20.7393    5.5159   31.1264 C   0  0  0  0  0  0  0  0  0  0  0  0
   19.5238    5.3827   31.2542 O   0  0  0  0  0  0  0  0  0  0  0  0
   21.5737    4.2933   30.7142 C   0  0  0  0  0  0  0  0  0  0  0  0
   23.0754    4.5499   30.5850 C   0  0  0  0  0  0  0  0  0  0  0  0
   23.9617    4.0062   31.5176 C   0  0  0  0  0  0  0  0  0  0  0  0
   25.3276    4.2685   31.4147 C   0  0  0  0  0  0  0  0  0  0  0  0
   25.8300    5.0672   30.3878 C   0  0  0  0  0  0  0  0  0  0  0  0
   24.9363    5.6034   29.4476 C   0  0  0  0  0  0  0  0  0  0  0  0
   23.5696    5.3480   29.5477 C   0  0  0  0  0  0  0  0  0  0  0  0
   27.1928    5.2764   30.3815 O   0  0  0  0  0  0  0  0  0  0  0  0
   27.7622    6.0804   29.3514 C   0  0  0  0  0  0  0  0  0  0  0  0
   24.9321   12.0228   29.6556 H   0  0  0  0  0  0  0  0  0  0  0  0
   23.3710   12.9080   29.7303 H   0  0  0  0  0  0  0  0  0  0  0  0
   24.3405   12.6693   31.2235 H   0  0  0  0  0  0  0  0  0  0  0  0
   22.9952   10.4464   29.5807 H   0  0  0  0  0  0  0  0  0  0  0  0
   23.9647   10.2076   31.0739 H   0  0  0  0  0  0  0  0  0  0  0  0
   22.5072    8.7292   30.8446 H   0  0  0  0  0  0  0  0  0  0  0  0
   19.1518    7.2157   32.8367 H   0  0  0  0  0  0  0  0  0  0  0  0
   18.0472   10.3973   33.9222 H   0  0  0  0  0  0  0  0  0  0  0  0
   19.2824    4.4824   31.0708 H   0  0  0  0  0  0  0  0  0  0  0  0
   21.4254    3.5083   31.4704 H   0  0  0  0  0  0  0  0  0  0  0  0
   21.2029    3.9395   29.7409 H   0  0  0  0  0  0  0  0  0  0  0  0
   23.5897    3.3833   32.3176 H   0  0  0  0  0  0  0  0  0  0  0  0
   26.0064    3.8468   32.1412 H   0  0  0  0  0  0  0  0  0  0  0  0
   25.3098    6.2176   28.6416 H   0  0  0  0  0  0  0  0  0  0  0  0
   22.8894    5.7680   28.8215 H   0  0  0  0  0  0  0  0  0  0  0  0
   28.8510    6.1440   29.4948 H   0  0  0  0  0  0  0  0  0  0  0  0
   27.5473    5.6278   28.3721 H   0  0  0  0  0  0  0  0  0  0  0  0
   27.3275    7.0901   29.3920 H   0  0  0  0  0  0  0  0  0  0  0  0
  1  2  1  0  0  0  0
  2  3  1  0  0  0  0
  3  4  1  0  0  0  0
  4 10  2  0  0  0  0
  4  5  1  0  0  0  0
  5  6  1  0  0  0  0
  6  7  2  0  0  0  0
  6 13  1  0  0  0  0
  7  8  1  0  0  0  0
  8  9  2  0  0  0  0
  8 10  1  0  0  0  0
 10 11  1  0  0  0  0
 11 12  3  0  0  0  0
 13 14  2  0  0  0  0
 14 15  1  0  0  0  0
 14 16  1  0  0  0  0
 16 17  1  0  0  0  0
 17 22  2  0  0  0  0
 17 18  1  0  0  0  0
 18 19  2  0  0  0  0
 19 20  1  0  0  0  0
 20 21  2  0  0  0  0
 20 23  1  0  0  0  0
 21 22  1  0  0  0  0
 23 24  1  0  0  0  0
  1 25  1  0  0  0  0
  1 26  1  0  0  0  0
  1 27  1  0  0  0  0
  2 28  1  0  0  0  0
  2 29  1  0  0  0  0
  5 30  1  0  0  0  0
  7 31  1  0  0  0  0
  9 32  1  0  0  0  0
 15 33  1  0  0  0  0
 16 34  1  0  0  0  0
 16 35  1  0  0  0  0
 18 36  1  0  0  0  0
 19 37  1  0  0  0  0
 21 38  1  0  0  0  0
 22 39  1  0  0  0  0
 24 40  1  0  0  0  0
 24 41  1  0  0  0  0
 24 42  1  0  0  0  0
M  END
> <i_m_stars>
0

> <r_user_dG.exp>
-9.174299

$$$$
18633-1
  -OEChem-05162309453D
 Structure written by MMmdl.
 42 43  0     1  0  0  0  0  0999 V2000
   24.0387   12.2179   30.2669 C   0  0  0  0  0  0  0  0  0  0  0  0
   23.3044   10.9016   30.5332 C   0  0  0  0  0  0  0  0  0  0  0  0
   22.1563   11.1951   31.3256 O   0  0  0  0  0  0  0  0  0  0  0  0
   21.3390   10.1633   31.7540 C   0  0  0  0  0  0  0  0  0  0  0  0
   21.6823    8.8992   31.3837 N   0  0  0  0  0  0  0  0  0  0  0  0
   20.8867    7.8880   31.7599 C   0  0  0  0  0  0  0  0  0  0  0  0
   19.7522    8.0618   32.5365 C   0  0  0  0  0  0  0  0  0  0  0  0
   19.4083    9.3453   32.9173 C   0  0  0  0  0  0  0  0  0  0  0  0
   18.2524    9.4490   33.6800 N   0  0  0  0  0  0  0  0  0  0  0  0
   20.2035   10.4351   32.5260 C   0  0  3  0  0  0  0  0  0  0  0  0
   19.8910   11.8152   32.8794 C   0  0  0  0  0  0  0  0  0  0  0  0
   19.6510   12.9138   33.1554 N   0  0  0  0  0  0  0  0  0  0  0  0
   21.3748    6.6763   31.3202 N   0  0  0  0  0  0  0  0  0  0  0  0
   20.7393    5.5159   31.1264 C   0  0  0  0  0  0  0  0  0  0  0  0
   19.5238    5.3827   31.2542 O   0  0  0  0  0  0  0  0  0  0  0  0
   21.5737    4.2933   30.7142 C   0  0  0  0  0  0  0  0  0  0  0  0
   23.0754    4.5499   30.5850 C   0  0  0  0  0  0  0  0  0  0  0  0
   23.9617    4.0062   31.5176 C   0  0  0  0  0  0  0  0  0  0  0  0
   25.3276    4.2685   31.4147 C   0  0  0  0  0  0  0  0  0  0  0  0
   25.8300    5.0672   30.3878 C   0  0  0  0  0  0  0  0  0  0  0  0
   24.9363    5.6034   29.4476 C   0  0  0  0  0  0  0  0  0  0  0  0
   23.5696    5.3480   29.5477 C   0  0  0  0  0  0  0  0  0  0  0  0
   27.1928    5.2764   30.3815 O   0  0  0  0  0  0  0  0  0  0  0  0
   27.7622    6.0804   29.3514 C   0  0  0  0  0  0  0  0  0  0  0  0
   24.9321   12.0228   29.6556 H   0  0  0  0  0  0  0  0  0  0  0  0
   23.3710   12.9080   29.7303 H   0  0  0  0  0  0  0  0  0  0  0  0
   24.3405   12.6693   31.2235 H   0  0  0  0  0  0  0  0  0  0  0  0
   22.9952   10.4464   29.5807 H   0  0  0  0  0  0  0  0  0  0  0  0
   23.9647   10.2076   31.0739 H   0  0  0  0  0  0  0  0  0  0  0  0
   18.9035    7.6521   31.9692 H   0  0  0  0  0  0  0  0  0  0  0  0
   19.8949    7.4764   33.4568 H   0  0  0  0  0  0  0  0  0  0  0  0
   18.0472   10.3973   33.9222 H   0  0  0  0  0  0  0  0  0  0  0  0
   20.8003   10.3326   33.4443 H   0  0  0  0  0  0  0  0  0  0  0  0
   21.4254    3.5083   31.4704 H   0  0  0  0  0  0  0  0  0  0  0  0
   21.2029    3.9395   29.7409 H   0  0  0  0  0  0  0  0  0  0  0  0
   23.5897    3.3833   32.3176 H   0  0  0  0  0  0  0  0  0  0  0  0
   26.0064    3.8468   32.1412 H   0  0  0  0  0  0  0  0  0  0  0  0
   25.3098    6.2176   28.6416 H   0  0  0  0  0  0  0  0  0  0  0  0
   22.8894    5.7680   28.8215 H   0  0  0  0  0  0  0  0  0  0  0  0
   28.8510    6.1440   29.4948 H   0  0  0  0  0  0  0  0  0  0  0  0
   27.5473    5.6278   28.3721 H   0  0  0  0  0  0  0  0  0  0  0  0
   27.3275    7.0901   29.3920 H   0  0  0  0  0  0  0  0  0  0  0  0
  1  2  1  0  0  0  0
  2  3  1  0  0  0  0
  3  4  1  0  0  0  0
  4 10  1  0  0  0  0
  4  5  2  0  0  0  0
  5  6  1  0  0  0  0
  6  7  1  0  0  0  0
  6 13  2  0  0  0  0
  7  8  1  0  0  0  0
  8  9  2  0  0  0  0
  8 10  1  0  0  0  0
 10 11  1  0  0  0  0
 11 12  3  0  0  0  0
 13 14  1  0  0  0  0
 14 15  2  0  0  0  0
 14 16  1  0  0  0  0
 16 17  1  0  0  0  0
 17 22  2  0  0  0  0
 17 18  1  0  0  0  0
 18 19  2  0  0  0  0
 19 20  1  0  0  0  0
 20 21  2  0  0  0  0
 20 23  1  0  0  0  0
 21 22  1  0  0  0  0
 23 24  1  0  0  0  0
  1 25  1  0  0  0  0
  1 26  1  0  0  0  0
  1 27  1  0  0  0  0
  2 28  1  0  0  0  0
  2 29  1  0  0  0  0
  7 30  1  0  0  0  0
  7 31  1  0  0  0  0
  9 32  1  0  0  0  0
 10 33  1  0  0  0  0
 16 34  1  0  0  0  0
 16 35  1  0  0  0  0
 18 36  1  0  0  0  0
 19 37  1  0  0  0  0
 21 38  1  0  0  0  0
 22 39  1  0  0  0  0
 24 40  1  0  0  0  0
 24 41  1  0  0  0  0
 24 42  1  0  0  0  0
M  END
> <i_m_stars>
0

> <r_user_dG.exp>
-9.174299

$$$$
18633-1
  -OEChem-05162309453D
 Structure written by MMmdl.
 42 43  0     1  0  0  0  0  0999 V2000
   24.0387   12.2179   30.2669 C   0  0  0  0  0  0  0  0  0  0  0  0
   23.3044   10.9016   30.5332 C   0  0  0  0  0  0  0  0  0  0  0  0
   22.1563   11.1951   31.3256 O   0  0  0  0  0  0  0  0  0  0  0  0
   21.3390   10.1633   31.7540 C   0  0  0  0  0  0  0  0  0  0  0  0
   21.6823    8.8992   31.3837 N   0  0  0  0  0  0  0  0  0  0  0  0
   20.8867    7.8880   31.7599 C   0  0  0  0  0  0  0  0  0  0  0  0
   19.7522    8.0618   32.5365 C   0  0  0  0  0  0  0  0  0  0  0  0
   19.4083    9.3453   32.9173 C   0  0  0  0  0  0  0  0  0  0  0  0
   18.2524    9.4490   33.6800 N   0  0  0  0  0  0  0  0  0  0  0  0
   20.2035   10.4351   32.5260 C   0  0  3  0  0  0  0  0  0  0  0  0
   19.8910   11.8152   32.8794 C   0  0  0  0  0  0  0  0  0  0  0  0
   19.6510   12.9138   33.1554 N   0  0  0  0  0  0  0  0  0  0  0  0
   21.3748    6.6763   31.3202 N   0  0  0  0  0  0  0  0  0  0  0  0
   20.7393    5.5159   31.1264 C   0  0  0  0  0  0  0  0  0  0  0  0
   19.5238    5.3827   31.2542 O   0  0  0  0  0  0  0  0  0  0  0  0
   21.5737    4.2933   30.7142 C   0  0  0  0  0  0  0  0  0  0  0  0
   23.0754    4.5499   30.5850 C   0  0  0  0  0  0  0  0  0  0  0  0
   23.9617    4.0062   31.5176 C   0  0  0  0  0  0  0  0  0  0  0  0
   25.3276    4.2685   31.4147 C   0  0  0  0  0  0  0  0  0  0  0  0
   25.8300    5.0672   30.3878 C   0  0  0  0  0  0  0  0  0  0  0  0
   24.9363    5.6034   29.4476 C   0  0  0  0  0  0  0  0  0  0  0  0
   23.5696    5.3480   29.5477 C   0  0  0  0  0  0  0  0  0  0  0  0
   27.1928    5.2764   30.3815 O   0  0  0  0  0  0  0  0  0  0  0  0
   27.7622    6.0804   29.3514 C   0  0  0  0  0  0  0  0  0  0  0  0
   24.9321   12.0228   29.6556 H   0  0  0  0  0  0  0  0  0  0  0  0
   23.3710   12.9080   29.7303 H   0  0  0  0  0  0  0  0  0  0  0  0
   24.3405   12.6693   31.2235 H   0  0  0  0  0  0  0  0  0  0  0  0
   22.9952   10.4464   29.5807 H   0  0  0  0  0  0  0  0  0  0  0  0
   23.9647   10.2076   31.0739 H   0  0  0  0  0  0  0  0  0  0  0  0
   19.1518    7.2157   32.8367 H   0  0  0  0  0  0  0  0  0  0  0  0
   18.0472   10.3973   33.9222 H   0  0  0  0  0  0  0  0  0  0  0  0
   20.8003   10.3326   33.4443 H   0  0  0  0  0  0  0  0  0  0  0  0
   22.3534    6.6630   31.1148 H   0  0  0  0  0  0  0  0  0  0  0  0
   21.4254    3.5083   31.4704 H   0  0  0  0  0  0  0  0  0  0  0  0
   21.2029    3.9395   29.7409 H   0  0  0  0  0  0  0  0  0  0  0  0
   23.5897    3.3833   32.3176 H   0  0  0  0  0  0  0  0  0  0  0  0
   26.0064    3.8468   32.1412 H   0  0  0  0  0  0  0  0  0  0  0  0
   25.3098    6.2176   28.6416 H   0  0  0  0  0  0  0  0  0  0  0  0
   22.8894    5.7680   28.8215 H   0  0  0  0  0  0  0  0  0  0  0  0
   28.8510    6.1440   29.4948 H   0  0  0  0  0  0  0  0  0  0  0  0
   27.5473    5.6278   28.3721 H   0  0  0  0  0  0  0  0  0  0  0  0
   27.3275    7.0901   29.3920 H   0  0  0  0  0  0  0  0  0  0  0  0
  1  2  1  0  0  0  0
  2  3  1  0  0  0  0
  3  4  1  0  0  0  0
  4 10  1  0  0  0  0
  4  5  2  0  0  0  0
  5  6  1  0  0  0  0
  6  7  2  0  0  0  0
  6 13  1  0  0  0  0
  7  8  1  0  0  0  0
  8  9  2  0  0  0  0
  8 10  1  0  0  0  0
 10 11  1  0  0  0  0
 11 12  3  0  0  0  0
 13 14  1  0  0  0  0
 14 15  2  0  0  0  0
 14 16  1  0  0  0  0
 16 17  1  0  0  0  0
 17 22  2  0  0  0  0
 17 18  1  0  0  0  0
 18 19  2  0  0  0  0
 19 20  1  0  0  0  0
 20 21  2  0  0  0  0
 20 23  1  0  0  0  0
 21 22  1  0  0  0  0
 23 24  1  0  0  0  0
  1 25  1  0  0  0  0
  1 26  1  0  0  0  0
  1 27  1  0  0  0  0
  2 28  1  0  0  0  0
  2 29  1  0  0  0  0
  7 30  1  0  0  0  0
  9 31  1  0  0  0  0
 10 32  1  0  0  0  0
 13 33  1  0  0  0  0
 16 34  1  0  0  0  0
 16 35  1  0  0  0  0
 18 36  1  0  0  0  0
 19 37  1  0  0  0  0
 21 38  1  0  0  0  0
 22 39  1  0  0  0  0
 24 40  1  0  0  0  0
 24 41  1  0  0  0  0
 24 42  1  0  0  0  0
M  END
> <i_m_stars>
0

> <r_user_dG.exp>
-9.174299

$$$$
18633-1
  -OEChem-05162309453D
 Structure written by MMmdl.
 42 43  0     0  0  0  0  0  0999 V2000
   24.0387   12.2179   30.2669 C   0  0  0  0  0  0  0  0  0  0  0  0
   23.3044   10.9016   30.5332 C   0  0  0  0  0  0  0  0  0  0  0  0
   22.1563   11.1951   31.3256 O   0  0  0  0  0  0  0  0  0  0  0  0
   21.3390   10.1633   31.7540 C   0  0  0  0  0  0  0  0  0  0  0  0
   21.6823    8.8992   31.3837 N   0  0  0  0  0  0  0  0  0  0  0  0
   20.8867    7.8880   31.7599 C   0  0  0  0  0  0  0  0  0  0  0  0
   19.7522    8.0618   32.5365 C   0  0  0  0  0  0  0  0  0  0  0  0
   19.4083    9.3453   32.9173 C   0  0  0  0  0  0  0  0  0  0  0  0
   18.2524    9.4490   33.6800 N   0  0  0  0  0  0  0  0  0  0  0  0
   20.2035   10.4351   32.5260 C   0  0  0  0  0  0  0  0  0  0  0  0
   19.8910   11.8152   32.8794 C   0  0  0  0  0  0  0  0  0  0  0  0
   19.6510   12.9138   33.1554 N   0  0  0  0  0  0  0  0  0  0  0  0
   21.3748    6.6763   31.3202 N   0  0  0  0  0  0  0  0  0  0  0  0
   20.7393    5.5159   31.1264 C   0  0  0  0  0  0  0  0  0  0  0  0
   19.5238    5.3827   31.2542 O   0  0  0  0  0  0  0  0  0  0  0  0
   21.5737    4.2933   30.7142 C   0  0  0  0  0  0  0  0  0  0  0  0
   23.0754    4.5499   30.5850 C   0  0  0  0  0  0  0  0  0  0  0  0
   23.9617    4.0062   31.5176 C   0  0  0  0  0  0  0  0  0  0  0  0
   25.3276    4.2685   31.4147 C   0  0  0  0  0  0  0  0  0  0  0  0
   25.8300    5.0672   30.3878 C   0  0  0  0  0  0  0  0  0  0  0  0
   24.9363    5.6034   29.4476 C   0  0  0  0  0  0  0  0  0  0  0  0
   23.5696    5.3480   29.5477 C   0  0  0  0  0  0  0  0  0  0  0  0
   27.1928    5.2764   30.3815 O   0  0  0  0  0  0  0  0  0  0  0  0
   27.7622    6.0804   29.3514 C   0  0  0  0  0  0  0  0  0  0  0  0
   24.9321   12.0228   29.6556 H   0  0  0  0  0  0  0  0  0  0  0  0
   23.3710   12.9080   29.7303 H   0  0  0  0  0  0  0  0  0  0  0  0
   24.3405   12.6693   31.2235 H   0  0  0  0  0  0  0  0  0  0  0  0
   22.9952   10.4464   29.5807 H   0  0  0  0  0  0  0  0  0  0  0  0
   23.9647   10.2076   31.0739 H   0  0  0  0  0  0  0  0  0  0  0  0
   18.9035    7.6521   31.9692 H   0  0  0  0  0  0  0  0  0  0  0  0
   19.8949    7.4764   33.4568 H   0  0  0  0  0  0  0  0  0  0  0  0
   18.0472   10.3973   33.9222 H   0  0  0  0  0  0  0  0  0  0  0  0
   22.3534    6.6630   31.1148 H   0  0  0  0  0  0  0  0  0  0  0  0
   21.4254    3.5083   31.4704 H   0  0  0  0  0  0  0  0  0  0  0  0
   21.2029    3.9395   29.7409 H   0  0  0  0  0  0  0  0  0  0  0  0
   23.5897    3.3833   32.3176 H   0  0  0  0  0  0  0  0  0  0  0  0
   26.0064    3.8468   32.1412 H   0  0  0  0  0  0  0  0  0  0  0  0
   25.3098    6.2176   28.6416 H   0  0  0  0  0  0  0  0  0  0  0  0
   22.8894    5.7680   28.8215 H   0  0  0  0  0  0  0  0  0  0  0  0
   28.8510    6.1440   29.4948 H   0  0  0  0  0  0  0  0  0  0  0  0
   27.5473    5.6278   28.3721 H   0  0  0  0  0  0  0  0  0  0  0  0
   27.3275    7.0901   29.3920 H   0  0  0  0  0  0  0  0  0  0  0  0
  1  2  1  0  0  0  0
  2  3  1  0  0  0  0
  3  4  1  0  0  0  0
  4 10  2  0  0  0  0
  4  5  1  0  0  0  0
  5  6  2  0  0  0  0
  6  7  1  0  0  0  0
  6 13  1  0  0  0  0
  7  8  1  0  0  0  0
  8  9  2  0  0  0  0
  8 10  1  0  0  0  0
 10 11  1  0  0  0  0
 11 12  3  0  0  0  0
 13 14  1  0  0  0  0
 14 15  2  0  0  0  0
 14 16  1  0  0  0  0
 16 17  1  0  0  0  0
 17 22  2  0  0  0  0
 17 18  1  0  0  0  0
 18 19  2  0  0  0  0
 19 20  1  0  0  0  0
 20 21  2  0  0  0  0
 20 23  1  0  0  0  0
 21 22  1  0  0  0  0
 23 24  1  0  0  0  0
  1 25  1  0  0  0  0
  1 26  1  0  0  0  0
  1 27  1  0  0  0  0
  2 28  1  0  0  0  0
  2 29  1  0  0  0  0
  7 30  1  0  0  0  0
  7 31  1  0  0  0  0
  9 32  1  0  0  0  0
 13 33  1  0  0  0  0
 16 34  1  0  0  0  0
 16 35  1  0  0  0  0
 18 36  1  0  0  0  0
 19 37  1  0  0  0  0
 21 38  1  0  0  0  0
 22 39  1  0  0  0  0
 24 40  1  0  0  0  0
 24 41  1  0  0  0  0
 24 42  1  0  0  0  0
M  END
> <i_m_stars>
0

> <r_user_dG.exp>
-9.174299

$$$$
18633-1
  -OEChem-05162309453D
 Structure written by MMmdl.
 42 43  0     1  0  0  0  0  0999 V2000
   24.0387   12.2179   30.2669 C   0  0  0  0  0  0  0  0  0  0  0  0
   23.3044   10.9016   30.5332 C   0  0  0  0  0  0  0  0  0  0  0  0
   22.1563   11.1951   31.3256 O   0  0  0  0  0  0  0  0  0  0  0  0
   21.3390   10.1633   31.7540 C   0  0  0  0  0  0  0  0  0  0  0  0
   21.6823    8.8992   31.3837 N   0  0  0  0  0  0  0  0  0  0  0  0
   20.8867    7.8880   31.7599 C   0  0  0  0  0  0  0  0  0  0  0  0
   19.7522    8.0618   32.5365 C   0  0  0  0  0  0  0  0  0  0  0  0
   19.4083    9.3453   32.9173 C   0  0  0  0  0  0  0  0  0  0  0  0
   18.2524    9.4490   33.6800 N   0  0  0  0  0  0  0  0  0  0  0  0
   20.2035   10.4351   32.5260 C   0  0  3  0  0  0  0  0  0  0  0  0
   19.8910   11.8152   32.8794 C   0  0  0  0  0  0  0  0  0  0  0  0
   19.6510   12.9138   33.1554 N   0  0  0  0  0  0  0  0  0  0  0  0
   21.3748    6.6763   31.3202 N   0  0  0  0  0  0  0  0  0  0  0  0
   20.7393    5.5159   31.1264 C   0  0  0  0  0  0  0  0  0  0  0  0
   19.5238    5.3827   31.2542 O   0  0  0  0  0  0  0  0  0  0  0  0
   21.5737    4.2933   30.7142 C   0  0  0  0  0  0  0  0  0  0  0  0
   23.0754    4.5499   30.5850 C   0  0  0  0  0  0  0  0  0  0  0  0
   23.9617    4.0062   31.5176 C   0  0  0  0  0  0  0  0  0  0  0  0
   25.3276    4.2685   31.4147 C   0  0  0  0  0  0  0  0  0  0  0  0
   25.8300    5.0672   30.3878 C   0  0  0  0  0  0  0  0  0  0  0  0
   24.9363    5.6034   29.4476 C   0  0  0  0  0  0  0  0  0  0  0  0
   23.5696    5.3480   29.5477 C   0  0  0  0  0  0  0  0  0  0  0  0
   27.1928    5.2764   30.3815 O   0  0  0  0  0  0  0  0  0  0  0  0
   27.7622    6.0804   29.3514 C   0  0  0  0  0  0  0  0  0  0  0  0
   24.9321   12.0228   29.6556 H   0  0  0  0  0  0  0  0  0  0  0  0
   23.3710   12.9080   29.7303 H   0  0  0  0  0  0  0  0  0  0  0  0
   24.3405   12.6693   31.2235 H   0  0  0  0  0  0  0  0  0  0  0  0
   22.9952   10.4464   29.5807 H   0  0  0  0  0  0  0  0  0  0  0  0
   23.9647   10.2076   31.0739 H   0  0  0  0  0  0  0  0  0  0  0  0
   19.1518    7.2157   32.8367 H   0  0  0  0  0  0  0  0  0  0  0  0
   18.0864   10.4090   33.9057 H   0  0  0  0  0  0  0  0  0  0  0  0
   17.4771    9.0899   33.1605 H   0  0  0  0  0  0  0  0  0  0  0  0
   20.8003   10.3326   33.4443 H   0  0  0  0  0  0  0  0  0  0  0  0
   21.4254    3.5083   31.4704 H   0  0  0  0  0  0  0  0  0  0  0  0
   21.2029    3.9395   29.7409 H   0  0  0  0  0  0  0  0  0  0  0  0
   23.5897    3.3833   32.3176 H   0  0  0  0  0  0  0  0  0  0  0  0
   26.0064    3.8468   32.1412 H   0  0  0  0  0  0  0  0  0  0  0  0
   25.3098    6.2176   28.6416 H   0  0  0  0  0  0  0  0  0  0  0  0
   22.8894    5.7680   28.8215 H   0  0  0  0  0  0  0  0  0  0  0  0
   28.8510    6.1440   29.4948 H   0  0  0  0  0  0  0  0  0  0  0  0
   27.5473    5.6278   28.3721 H   0  0  0  0  0  0  0  0  0  0  0  0
   27.3275    7.0901   29.3920 H   0  0  0  0  0  0  0  0  0  0  0  0
  1  2  1  0  0  0  0
  2  3  1  0  0  0  0
  3  4  1  0  0  0  0
  4 10  1  0  0  0  0
  4  5  2  0  0  0  0
  5  6  1  0  0  0  0
  6  7  1  0  0  0  0
  6 13  2  0  0  0  0
  7  8  2  0  0  0  0
  8  9  1  0  0  0  0
  8 10  1  0  0  0  0
 10 11  1  0  0  0  0
 11 12  3  0  0  0  0
 13 14  1  0  0  0  0
 14 15  2  0  0  0  0
 14 16  1  0  0  0  0
 16 17  1  0  0  0  0
 17 22  2  0  0  0  0
 17 18  1  0  0  0  0
 18 19  2  0  0  0  0
 19 20  1  0  0  0  0
 20 21  2  0  0  0  0
 20 23  1  0  0  0  0
 21 22  1  0  0  0  0
 23 24  1  0  0  0  0
  1 25  1  0  0  0  0
  1 26  1  0  0  0  0
  1 27  1  0  0  0  0
  2 28  1  0  0  0  0
  2 29  1  0  0  0  0
  7 30  1  0  0  0  0
  9 31  1  0  0  0  0
  9 32  1  0  0  0  0
 10 33  1  0  0  0  0
 16 34  1  0  0  0  0
 16 35  1  0  0  0  0
 18 36  1  0  0  0  0
 19 37  1  0  0  0  0
 21 38  1  0  0  0  0
 22 39  1  0  0  0  0
 24 40  1  0  0  0  0
 24 41  1  0  0  0  0
 24 42  1  0  0  0  0
M  END
> <i_m_stars>
0

> <r_user_dG.exp>
-9.174299

$$$$
18633-1
  -OEChem-05162309453D
 Structure written by MMmdl.
 42 43  0     0  0  0  0  0  0999 V2000
   24.0387   12.2179   30.2669 C   0  0  0  0  0  0  0  0  0  0  0  0
   23.3044   10.9016   30.5332 C   0  0  0  0  0  0  0  0  0  0  0  0
   22.1563   11.1951   31.3256 O   0  0  0  0  0  0  0  0  0  0  0  0
   21.3390   10.1633   31.7540 C   0  0  0  0  0  0  0  0  0  0  0  0
   21.6823    8.8992   31.3837 N   0  0  0  0  0  0  0  0  0  0  0  0
   20.8867    7.8880   31.7599 C   0  0  0  0  0  0  0  0  0  0  0  0
   19.7522    8.0618   32.5365 C   0  0  0  0  0  0  0  0  0  0  0  0
   19.4083    9.3453   32.9173 C   0  0  0  0  0  0  0  0  0  0  0  0
   18.2524    9.4490   33.6800 N   0  0  0  0  0  0  0  0  0  0  0  0
   20.2035   10.4351   32.5260 C   0  0  0  0  0  0  0  0  0  0  0  0
   19.8910   11.8152   32.8794 C   0  0  0  0  0  0  0  0  0  0  0  0
   19.6510   12.9138   33.1554 N   0  0  0  0  0  0  0  0  0  0  0  0
   21.3748    6.6763   31.3202 N   0  0  0  0  0  0  0  0  0  0  0  0
   20.7393    5.5159   31.1264 C   0  0  0  0  0  0  0  0  0  0  0  0
   19.5238    5.3827   31.2542 O   0  0  0  0  0  0  0  0  0  0  0  0
   21.5737    4.2933   30.7142 C   0  0  0  0  0  0  0  0  0  0  0  0
   23.0754    4.5499   30.5850 C   0  0  0  0  0  0  0  0  0  0  0  0
   23.9617    4.0062   31.5176 C   0  0  0  0  0  0  0  0  0  0  0  0
   25.3276    4.2685   31.4147 C   0  0  0  0  0  0  0  0  0  0  0  0
   25.8300    5.0672   30.3878 C   0  0  0  0  0  0  0  0  0  0  0  0
   24.9363    5.6034   29.4476 C   0  0  0  0  0  0  0  0  0  0  0  0
   23.5696    5.3480   29.5477 C   0  0  0  0  0  0  0  0  0  0  0  0
   27.1928    5.2764   30.3815 O   0  0  0  0  0  0  0  0  0  0  0  0
   27.7622    6.0804   29.3514 C   0  0  0  0  0  0  0  0  0  0  0  0
   24.9321   12.0228   29.6556 H   0  0  0  0  0  0  0  0  0  0  0  0
   23.3710   12.9080   29.7303 H   0  0  0  0  0  0  0  0  0  0  0  0
   24.3405   12.6693   31.2235 H   0  0  0  0  0  0  0  0  0  0  0  0
   22.9952   10.4464   29.5807 H   0  0  0  0  0  0  0  0  0  0  0  0
   23.9647   10.2076   31.0739 H   0  0  0  0  0  0  0  0  0  0  0  0
   18.9035    7.6521   31.9692 H   0  0  0  0  0  0  0  0  0  0  0  0
   19.8949    7.4764   33.4568 H   0  0  0  0  0  0  0  0  0  0  0  0
   18.0864   10.4090   33.9057 H   0  0  0  0  0  0  0  0  0  0  0  0
   17.4771    9.0899   33.1605 H   0  0  0  0  0  0  0  0  0  0  0  0
   21.4254    3.5083   31.4704 H   0  0  0  0  0  0  0  0  0  0  0  0
   21.2029    3.9395   29.7409 H   0  0  0  0  0  0  0  0  0  0  0  0
   23.5897    3.3833   32.3176 H   0  0  0  0  0  0  0  0  0  0  0  0
   26.0064    3.8468   32.1412 H   0  0  0  0  0  0  0  0  0  0  0  0
   25.3098    6.2176   28.6416 H   0  0  0  0  0  0  0  0  0  0  0  0
   22.8894    5.7680   28.8215 H   0  0  0  0  0  0  0  0  0  0  0  0
   28.8510    6.1440   29.4948 H   0  0  0  0  0  0  0  0  0  0  0  0
   27.5473    5.6278   28.3721 H   0  0  0  0  0  0  0  0  0  0  0  0
   27.3275    7.0901   29.3920 H   0  0  0  0  0  0  0  0  0  0  0  0
  1  2  1  0  0  0  0
  2  3  1  0  0  0  0
  3  4  1  0  0  0  0
  4 10  1  0  0  0  0
  4  5  2  0  0  0  0
  5  6  1  0  0  0  0
  6  7  1  0  0  0  0
  6 13  2  0  0  0  0
  7  8  1  0  0  0  0
  8  9  1  0  0  0  0
  8 10  2  0  0  0  0
 10 11  1  0  0  0  0
 11 12  3  0  0  0  0
 13 14  1  0  0  0  0
 14 15  2  0  0  0  0
 14 16  1  0  0  0  0
 16 17  1  0  0  0  0
 17 22  2  0  0  0  0
 17 18  1  0  0  0  0
 18 19  2  0  0  0  0
 19 20  1  0  0  0  0
 20 21  2  0  0  0  0
 20 23  1  0  0  0  0
 21 22  1  0  0  0  0
 23 24  1  0  0  0  0
  1 25  1  0  0  0  0
  1 26  1  0  0  0  0
  1 27  1  0  0  0  0
  2 28  1  0  0  0  0
  2 29  1  0  0  0  0
  7 30  1  0  0  0  0
  7 31  1  0  0  0  0
  9 32  1  0  0  0  0
  9 33  1  0  0  0  0
 16 34  1  0  0  0  0
 16 35  1  0  0  0  0
 18 36  1  0  0  0  0
 19 37  1  0  0  0  0
 21 38  1  0  0  0  0
 22 39  1  0  0  0  0
 24 40  1  0  0  0  0
 24 41  1  0  0  0  0
 24 42  1  0  0  0  0
M  END
> <i_m_stars>
0

> <r_user_dG.exp>
-9.174299

$$$$
18633-1
  -OEChem-05162309453D
 Structure written by MMmdl.
 42 43  0     0  0  0  0  0  0999 V2000
   24.0387   12.2179   30.2669 C   0  0  0  0  0  0  0  0  0  0  0  0
   23.3044   10.9016   30.5332 C   0  0  0  0  0  0  0  0  0  0  0  0
   22.1563   11.1951   31.3256 O   0  0  0  0  0  0  0  0  0  0  0  0
   21.3390   10.1633   31.7540 C   0  0  0  0  0  0  0  0  0  0  0  0
   21.6823    8.8992   31.3837 N   0  0  0  0  0  0  0  0  0  0  0  0
   20.8867    7.8880   31.7599 C   0  0  0  0  0  0  0  0  0  0  0  0
   19.7522    8.0618   32.5365 C   0  0  0  0  0  0  0  0  0  0  0  0
   19.4083    9.3453   32.9173 C   0  0  0  0  0  0  0  0  0  0  0  0
   18.2524    9.4490   33.6800 N   0  0  0  0  0  0  0  0  0  0  0  0
   20.2035   10.4351   32.5260 C   0  0  0  0  0  0  0  0  0  0  0  0
   19.8910   11.8152   32.8794 C   0  0  0  0  0  0  0  0  0  0  0  0
   19.6510   12.9138   33.1554 N   0  0  0  0  0  0  0  0  0  0  0  0
   21.3748    6.6763   31.3202 N   0  0  0  0  0  0  0  0  0  0  0  0
   20.7393    5.5159   31.1264 C   0  0  0  0  0  0  0  0  0  0  0  0
   19.5238    5.3827   31.2542 O   0  0  0  0  0  0  0  0  0  0  0  0
   21.5737    4.2933   30.7142 C   0  0  0  0  0  0  0  0  0  0  0  0
   23.0754    4.5499   30.5850 C   0  0  0  0  0  0  0  0  0  0  0  0
   23.9617    4.0062   31.5176 C   0  0  0  0  0  0  0  0  0  0  0  0
   25.3276    4.2685   31.4147 C   0  0  0  0  0  0  0  0  0  0  0  0
   25.8300    5.0672   30.3878 C   0  0  0  0  0  0  0  0  0  0  0  0
   24.9363    5.6034   29.4476 C   0  0  0  0  0  0  0  0  0  0  0  0
   23.5696    5.3480   29.5477 C   0  0  0  0  0  0  0  0  0  0  0  0
   27.1928    5.2764   30.3815 O   0  0  0  0  0  0  0  0  0  0  0  0
   27.7622    6.0804   29.3514 C   0  0  0  0  0  0  0  0  0  0  0  0
   24.9321   12.0228   29.6556 H   0  0  0  0  0  0  0  0  0  0  0  0
   23.3710   12.9080   29.7303 H   0  0  0  0  0  0  0  0  0  0  0  0
   24.3405   12.6693   31.2235 H   0  0  0  0  0  0  0  0  0  0  0  0
   22.9952   10.4464   29.5807 H   0  0  0  0  0  0  0  0  0  0  0  0
   23.9647   10.2076   31.0739 H   0  0  0  0  0  0  0  0  0  0  0  0
   22.5072    8.7292   30.8446 H   0  0  0  0  0  0  0  0  0  0  0  0
   18.9035    7.6521   31.9692 H   0  0  0  0  0  0  0  0  0  0  0  0
   19.8949    7.4764   33.4568 H   0  0  0  0  0  0  0  0  0  0  0  0
   18.0472   10.3973   33.9222 H   0  0  0  0  0  0  0  0  0  0  0  0
   21.4254    3.5083   31.4704 H   0  0  0  0  0  0  0  0  0  0  0  0
   21.2029    3.9395   29.7409 H   0  0  0  0  0  0  0  0  0  0  0  0
   23.5897    3.3833   32.3176 H   0  0  0  0  0  0  0  0  0  0  0  0
   26.0064    3.8468   32.1412 H   0  0  0  0  0  0  0  0  0  0  0  0
   25.3098    6.2176   28.6416 H   0  0  0  0  0  0  0  0  0  0  0  0
   22.8894    5.7680   28.8215 H   0  0  0  0  0  0  0  0  0  0  0  0
   28.8510    6.1440   29.4948 H   0  0  0  0  0  0  0  0  0  0  0  0
   27.5473    5.6278   28.3721 H   0  0  0  0  0  0  0  0  0  0  0  0
   27.3275    7.0901   29.3920 H   0  0  0  0  0  0  0  0  0  0  0  0
  1  2  1  0  0  0  0
  2  3  1  0  0  0  0
  3  4  1  0  0  0  0
  4 10  2  0  0  0  0
  4  5  1  0  0  0  0
  5  6  1  0  0  0  0
  6  7  1  0  0  0  0
  6 13  2  0  0  0  0
  7  8  1  0  0  0  0
  8  9  2  0  0  0  0
  8 10  1  0  0  0  0
 10 11  1  0  0  0  0
 11 12  3  0  0  0  0
 13 14  1  0  0  0  0
 14 15  2  0  0  0  0
 14 16  1  0  0  0  0
 16 17  1  0  0  0  0
 17 22  2  0  0  0  0
 17 18  1  0  0  0  0
 18 19  2  0  0  0  0
 19 20  1  0  0  0  0
 20 21  2  0  0  0  0
 20 23  1  0  0  0  0
 21 22  1  0  0  0  0
 23 24  1  0  0  0  0
  1 25  1  0  0  0  0
  1 26  1  0  0  0  0
  1 27  1  0  0  0  0
  2 28  1  0  0  0  0
  2 29  1  0  0  0  0
  5 30  1  0  0  0  0
  7 31  1  0  0  0  0
  7 32  1  0  0  0  0
  9 33  1  0  0  0  0
 16 34  1  0  0  0  0
 16 35  1  0  0  0  0
 18 36  1  0  0  0  0
 19 37  1  0  0  0  0
 21 38  1  0  0  0  0
 22 39  1  0  0  0  0
 24 40  1  0  0  0  0
 24 41  1  0  0  0  0
 24 42  1  0  0  0  0
M  END
> <i_m_stars>
0

> <r_user_dG.exp>
-9.174299

$$$$
18633-1
  -OEChem-05162309453D
 Structure written by MMmdl.
 42 43  0     1  0  0  0  0  0999 V2000
   24.0387   12.2179   30.2669 C   0  0  0  0  0  0  0  0  0  0  0  0
   23.3044   10.9016   30.5332 C   0  0  0  0  0  0  0  0  0  0  0  0
   22.1563   11.1951   31.3256 O   0  0  0  0  0  0  0  0  0  0  0  0
   21.3390   10.1633   31.7540 C   0  0  0  0  0  0  0  0  0  0  0  0
   21.6823    8.8992   31.3837 N   0  0  0  0  0  0  0  0  0  0  0  0
   20.8867    7.8880   31.7599 C   0  0  0  0  0  0  0  0  0  0  0  0
   19.7522    8.0618   32.5365 C   0  0  0  0  0  0  0  0  0  0  0  0
   19.4083    9.3453   32.9173 C   0  0  0  0  0  0  0  0  0  0  0  0
   18.2524    9.4490   33.6800 N   0  0  0  0  0  0  0  0  0  0  0  0
   20.2035   10.4351   32.5260 C   0  0  3  0  0  0  0  0  0  0  0  0
   19.8910   11.8152   32.8794 C   0  0  0  0  0  0  0  0  0  0  0  0
   19.6510   12.9138   33.1554 N   0  0  0  0  0  0  0  0  0  0  0  0
   21.3748    6.6763   31.3202 N   0  0  0  0  0  0  0  0  0  0  0  0
   20.7393    5.5159   31.1264 C   0  0  0  0  0  0  0  0  0  0  0  0
   19.5238    5.3827   31.2542 O   0  0  0  0  0  0  0  0  0  0  0  0
   21.5737    4.2933   30.7142 C   0  0  0  0  0  0  0  0  0  0  0  0
   23.0754    4.5499   30.5850 C   0  0  0  0  0  0  0  0  0  0  0  0
   23.9617    4.0062   31.5176 C   0  0  0  0  0  0  0  0  0  0  0  0
   25.3276    4.2685   31.4147 C   0  0  0  0  0  0  0  0  0  0  0  0
   25.8300    5.0672   30.3878 C   0  0  0  0  0  0  0  0  0  0  0  0
   24.9363    5.6034   29.4476 C   0  0  0  0  0  0  0  0  0  0  0  0
   23.5696    5.3480   29.5477 C   0  0  0  0  0  0  0  0  0  0  0  0
   27.1928    5.2764   30.3815 O   0  0  0  0  0  0  0  0  0  0  0  0
   27.7622    6.0804   29.3514 C   0  0  0  0  0  0  0  0  0  0  0  0
   24.9321   12.0228   29.6556 H   0  0  0  0  0  0  0  0  0  0  0  0
   23.3710   12.9080   29.7303 H   0  0  0  0  0  0  0  0  0  0  0  0
   24.3405   12.6693   31.2235 H   0  0  0  0  0  0  0  0  0  0  0  0
   22.9952   10.4464   29.5807 H   0  0  0  0  0  0  0  0  0  0  0  0
   23.9647   10.2076   31.0739 H   0  0  0  0  0  0  0  0  0  0  0  0
   19.1518    7.2157   32.8367 H   0  0  0  0  0  0  0  0  0  0  0  0
   18.0472   10.3973   33.9222 H   0  0  0  0  0  0  0  0  0  0  0  0
   20.8003   10.3326   33.4443 H   0  0  0  0  0  0  0  0  0  0  0  0
   19.2824    4.4824   31.0708 H   0  0  0  0  0  0  0  0  0  0  0  0
   21.4254    3.5083   31.4704 H   0  0  0  0  0  0  0  0  0  0  0  0
   21.2029    3.9395   29.7409 H   0  0  0  0  0  0  0  0  0  0  0  0
   23.5897    3.3833   32.3176 H   0  0  0  0  0  0  0  0  0  0  0  0
   26.0064    3.8468   32.1412 H   0  0  0  0  0  0  0  0  0  0  0  0
   25.3098    6.2176   28.6416 H   0  0  0  0  0  0  0  0  0  0  0  0
   22.8894    5.7680   28.8215 H   0  0  0  0  0  0  0  0  0  0  0  0
   28.8510    6.1440   29.4948 H   0  0  0  0  0  0  0  0  0  0  0  0
   27.5473    5.6278   28.3721 H   0  0  0  0  0  0  0  0  0  0  0  0
   27.3275    7.0901   29.3920 H   0  0  0  0  0  0  0  0  0  0  0  0
  1  2  1  0  0  0  0
  2  3  1  0  0  0  0
  3  4  1  0  0  0  0
  4 10  1  0  0  0  0
  4  5  2  0  0  0  0
  5  6  1  0  0  0  0
  6  7  2  0  0  0  0
  6 13  1  0  0  0  0
  7  8  1  0  0  0  0
  8  9  2  0  0  0  0
  8 10  1  0  0  0  0
 10 11  1  0  0  0  0
 11 12  3  0  0  0  0
 13 14  2  0  0  0  0
 14 15  1  0  0  0  0
 14 16  1  0  0  0  0
 16 17  1  0  0  0  0
 17 22  2  0  0  0  0
 17 18  1  0  0  0  0
 18 19  2  0  0  0  0
 19 20  1  0  0  0  0
 20 21  2  0  0  0  0
 20 23  1  0  0  0  0
 21 22  1  0  0  0  0
 23 24  1  0  0  0  0
  1 25  1  0  0  0  0
  1 26  1  0  0  0  0
  1 27  1  0  0  0  0
  2 28  1  0  0  0  0
  2 29  1  0  0  0  0
  7 30  1  0  0  0  0
  9 31  1  0  0  0  0
 10 32  1  0  0  0  0
 15 33  1  0  0  0  0
 16 34  1  0  0  0  0
 16 35  1  0  0  0  0
 18 36  1  0  0  0  0
 19 37  1  0  0  0  0
 21 38  1  0  0  0  0
 22 39  1  0  0  0  0
 24 40  1  0  0  0  0
 24 41  1  0  0  0  0
 24 42  1  0  0  0  0
M  END
> <i_m_stars>
0

> <r_user_dG.exp>
-9.174299

$$$$
18633-1
  -OEChem-05162309453D
 Structure written by MMmdl.
 42 43  0     0  0  0  0  0  0999 V2000
   24.0387   12.2179   30.2669 C   0  0  0  0  0  0  0  0  0  0  0  0
   23.3044   10.9016   30.5332 C   0  0  0  0  0  0  0  0  0  0  0  0
   22.1563   11.1951   31.3256 O   0  0  0  0  0  0  0  0  0  0  0  0
   21.3390   10.1633   31.7540 C   0  0  0  0  0  0  0  0  0  0  0  0
   21.6823    8.8992   31.3837 N   0  0  0  0  0  0  0  0  0  0  0  0
   20.8867    7.8880   31.7599 C   0  0  0  0  0  0  0  0  0  0  0  0
   19.7522    8.0618   32.5365 C   0  0  0  0  0  0  0  0  0  0  0  0
   19.4083    9.3453   32.9173 C   0  0  0  0  0  0  0  0  0  0  0  0
   18.2524    9.4490   33.6800 N   0  0  0  0  0  0  0  0  0  0  0  0
   20.2035   10.4351   32.5260 C   0  0  0  0  0  0  0  0  0  0  0  0
   19.8910   11.8152   32.8794 C   0  0  0  0  0  0  0  0  0  0  0  0
   19.6510   12.9138   33.1554 N   0  0  0  0  0  0  0  0  0  0  0  0
   21.3748    6.6763   31.3202 N   0  0  0  0  0  0  0  0  0  0  0  0
   20.7393    5.5159   31.1264 C   0  0  0  0  0  0  0  0  0  0  0  0
   19.5238    5.3827   31.2542 O   0  0  0  0  0  0  0  0  0  0  0  0
   21.5737    4.2933   30.7142 C   0  0  0  0  0  0  0  0  0  0  0  0
   23.0754    4.5499   30.5850 C   0  0  0  0  0  0  0  0  0  0  0  0
   23.9617    4.0062   31.5176 C   0  0  0  0  0  0  0  0  0  0  0  0
   25.3276    4.2685   31.4147 C   0  0  0  0  0  0  0  0  0  0  0  0
   25.8300    5.0672   30.3878 C   0  0  0  0  0  0  0  0  0  0  0  0
   24.9363    5.6034   29.4476 C   0  0  0  0  0  0  0  0  0  0  0  0
   23.5696    5.3480   29.5477 C   0  0  0  0  0  0  0  0  0  0  0  0
   27.1928    5.2764   30.3815 O   0  0  0  0  0  0  0  0  0  0  0  0
   27.7622    6.0804   29.3514 C   0  0  0  0  0  0  0  0  0  0  0  0
   24.9321   12.0228   29.6556 H   0  0  0  0  0  0  0  0  0  0  0  0
   23.3710   12.9080   29.7303 H   0  0  0  0  0  0  0  0  0  0  0  0
   24.3405   12.6693   31.2235 H   0  0  0  0  0  0  0  0  0  0  0  0
   22.9952   10.4464   29.5807 H   0  0  0  0  0  0  0  0  0  0  0  0
   23.9647   10.2076   31.0739 H   0  0  0  0  0  0  0  0  0  0  0  0
   18.9035    7.6521   31.9692 H   0  0  0  0  0  0  0  0  0  0  0  0
   19.8949    7.4764   33.4568 H   0  0  0  0  0  0  0  0  0  0  0  0
   18.0472   10.3973   33.9222 H   0  0  0  0  0  0  0  0  0  0  0  0
   19.2824    4.4824   31.0708 H   0  0  0  0  0  0  0  0  0  0  0  0
   21.4254    3.5083   31.4704 H   0  0  0  0  0  0  0  0  0  0  0  0
   21.2029    3.9395   29.7409 H   0  0  0  0  0  0  0  0  0  0  0  0
   23.5897    3.3833   32.3176 H   0  0  0  0  0  0  0  0  0  0  0  0
   26.0064    3.8468   32.1412 H   0  0  0  0  0  0  0  0  0  0  0  0
   25.3098    6.2176   28.6416 H   0  0  0  0  0  0  0  0  0  0  0  0
   22.8894    5.7680   28.8215 H   0  0  0  0  0  0  0  0  0  0  0  0
   28.8510    6.1440   29.4948 H   0  0  0  0  0  0  0  0  0  0  0  0
   27.5473    5.6278   28.3721 H   0  0  0  0  0  0  0  0  0  0  0  0
   27.3275    7.0901   29.3920 H   0  0  0  0  0  0  0  0  0  0  0  0
  1  2  1  0  0  0  0
  2  3  1  0  0  0  0
  3  4  1  0  0  0  0
  4 10  2  0  0  0  0
  4  5  1  0  0  0  0
  5  6  2  0  0  0  0
  6  7  1  0  0  0  0
  6 13  1  0  0  0  0
  7  8  1  0  0  0  0
  8  9  2  0  0  0  0
  8 10  1  0  0  0  0
 10 11  1  0  0  0  0
 11 12  3  0  0  0  0
 13 14  2  0  0  0  0
 14 15  1  0  0  0  0
 14 16  1  0  0  0  0
 16 17  1  0  0  0  0
 17 22  2  0  0  0  0
 17 18  1  0  0  0  0
 18 19  2  0  0  0  0
 19 20  1  0  0  0  0
 20 21  2  0  0  0  0
 20 23  1  0  0  0  0
 21 22  1  0  0  0  0
 23 24  1  0  0  0  0
  1 25  1  0  0  0  0
  1 26  1  0  0  0  0
  1 27  1  0  0  0  0
  2 28  1  0  0  0  0
  2 29  1  0  0  0  0
  7 30  1  0  0  0  0
  7 31  1  0  0  0  0
  9 32  1  0  0  0  0
 15 33  1  0  0  0  0
 16 34  1  0  0  0  0
 16 35  1  0  0  0  0
 18 36  1  0  0  0  0
 19 37  1  0  0  0  0
 21 38  1  0  0  0  0
 22 39  1  0  0  0  0
 24 40  1  0  0  0  0
 24 41  1  0  0  0  0
 24 42  1  0  0  0  0
M  END
> <i_m_stars>
0

> <r_user_dG.exp>
-9.174299

$$$$
