18652-1
  -OEChem-05162309453D
 Structure written by MMmdl.
 55 56  0     0  0  0  0  0  0999 V2000
   24.4145   10.2466   30.7179 C   0  0  0  0  0  0  0  0  0  0  0  0
   23.2191   11.0461   30.1836 C   0  0  0  0  0  0  0  0  0  0  0  0
   22.7154   10.5298   28.8282 C   0  0  0  0  0  0  0  0  0  0  0  0
   22.1815   11.2380   31.1572 O   0  0  0  0  0  0  0  0  0  0  0  0
   21.4027   10.2023   31.6505 C   0  0  0  0  0  0  0  0  0  0  0  0
   21.7305    8.9413   31.2769 N   0  0  0  0  0  0  0  0  0  0  0  0
   20.9695    7.9245   31.6884 C   0  0  0  0  0  0  0  0  0  0  0  0
   19.8692    8.0881   32.5165 C   0  0  0  0  0  0  0  0  0  0  0  0
   19.5323    9.3739   32.9065 C   0  0  0  0  0  0  0  0  0  0  0  0
   18.4017    9.4816   33.7079 N   0  0  0  0  0  0  0  0  0  0  0  0
   20.3042   10.4681   32.4772 C   0  0  0  0  0  0  0  0  0  0  0  0
   19.9961   11.8471   32.8385 C   0  0  0  0  0  0  0  0  0  0  0  0
   19.7584   12.9445   33.1218 N   0  0  0  0  0  0  0  0  0  0  0  0
   21.4458    6.7432   31.1644 N   0  0  0  0  0  0  0  0  0  0  0  0
   20.8524    5.5564   31.0443 C   0  0  0  0  0  0  0  0  0  0  0  0
   19.7091    5.3135   31.4219 O   0  0  0  0  0  0  0  0  0  0  0  0
   21.6443    4.4872   30.3016 C   0  0  0  0  0  0  0  0  0  0  0  0
   22.9984    4.1711   30.9304 C   0  0  0  0  0  0  0  0  0  0  0  0
   24.1219    4.9619   30.6449 C   0  0  0  0  0  0  0  0  0  0  0  0
   23.9394    6.0555   29.8171 O   0  0  0  0  0  0  0  0  0  0  0  0
   25.0655    6.8325   29.4151 C   0  0  0  0  0  0  0  0  0  0  0  0
   25.3547    4.6081   31.2081 C   0  0  0  0  0  0  0  0  0  0  0  0
   25.4606    3.5028   32.0584 C   0  0  0  0  0  0  0  0  0  0  0  0
   27.0696    3.0792   32.7393 S   0  0  0  0  0  0  0  0  0  0  0  0
   26.9129    2.7675   34.1691 O   0  0  0  0  0  0  0  0  0  0  0  0
   28.0400    4.1078   32.3298 O   0  0  0  0  0  0  0  0  0  0  0  0
   27.5188    1.5242   31.8684 C   0  0  0  0  0  0  0  0  0  0  0  0
   24.3410    2.7135   32.3514 C   0  0  0  0  0  0  0  0  0  0  0  0
   23.1128    3.0637   31.7753 C   0  0  0  0  0  0  0  0  0  0  0  0
   24.5003    1.6315   33.1956 O   0  0  0  0  0  0  0  0  0  0  0  0
   23.5378    0.5806   33.1826 C   0  0  0  0  0  0  0  0  0  0  0  0
   24.7297   10.6609   31.6869 H   0  0  0  0  0  0  0  0  0  0  0  0
   24.1232    9.1937   30.8467 H   0  0  0  0  0  0  0  0  0  0  0  0
   25.2479   10.3116   30.0029 H   0  0  0  0  0  0  0  0  0  0  0  0
   23.6219   12.0475   29.9715 H   0  0  0  0  0  0  0  0  0  0  0  0
   21.8615   11.1393   28.4974 H   0  0  0  0  0  0  0  0  0  0  0  0
   23.5244   10.5989   28.0861 H   0  0  0  0  0  0  0  0  0  0  0  0
   22.3996    9.4810   28.9298 H   0  0  0  0  0  0  0  0  0  0  0  0
   19.2917    7.2377   32.8477 H   0  0  0  0  0  0  0  0  0  0  0  0
   18.2433   10.4427   33.9343 H   0  0  0  0  0  0  0  0  0  0  0  0
   17.6093    9.1200   33.2166 H   0  0  0  0  0  0  0  0  0  0  0  0
   22.3839    6.7824   30.8202 H   0  0  0  0  0  0  0  0  0  0  0  0
   21.0469    3.5638   30.2837 H   0  0  0  0  0  0  0  0  0  0  0  0
   21.8135    4.8345   29.2717 H   0  0  0  0  0  0  0  0  0  0  0  0
   24.7314    7.6539   28.7642 H   0  0  0  0  0  0  0  0  0  0  0  0
   25.5605    7.2483   30.3051 H   0  0  0  0  0  0  0  0  0  0  0  0
   25.7738    6.1946   28.8661 H   0  0  0  0  0  0  0  0  0  0  0  0
   26.2329    5.1952   30.9833 H   0  0  0  0  0  0  0  0  0  0  0  0
   28.5019    1.1775   32.2196 H   0  0  0  0  0  0  0  0  0  0  0  0
   26.7619    0.7543   32.0791 H   0  0  0  0  0  0  0  0  0  0  0  0
   27.5611    1.7099   30.7850 H   0  0  0  0  0  0  0  0  0  0  0  0
   22.2382    2.4668   31.9881 H   0  0  0  0  0  0  0  0  0  0  0  0
   23.8253   -0.1897   33.9134 H   0  0  0  0  0  0  0  0  0  0  0  0
   22.5496    0.9854   33.4463 H   0  0  0  0  0  0  0  0  0  0  0  0
   23.4953    0.1349   32.1778 H   0  0  0  0  0  0  0  0  0  0  0  0
  1  2  1  0  0  0  0
  2  3  1  0  0  0  0
  2  4  1  0  0  0  0
  4  5  1  0  0  0  0
  5 11  2  0  0  0  0
  5  6  1  0  0  0  0
  6  7  2  0  0  0  0
  7  8  1  0  0  0  0
  7 14  1  0  0  0  0
  8  9  2  0  0  0  0
  9 10  1  0  0  0  0
  9 11  1  0  0  0  0
 11 12  1  0  0  0  0
 12 13  3  0  0  0  0
 14 15  1  0  0  0  0
 15 16  2  0  0  0  0
 15 17  1  0  0  0  0
 17 18  1  0  0  0  0
 18 29  2  0  0  0  0
 18 19  1  0  0  0  0
 19 20  1  0  0  0  0
 19 22  2  0  0  0  0
 20 21  1  0  0  0  0
 22 23  1  0  0  0  0
 23 24  1  0  0  0  0
 23 28  2  0  0  0  0
 24 25  2  0  0  0  0
 24 26  2  0  0  0  0
 24 27  1  0  0  0  0
 28 29  1  0  0  0  0
 28 30  1  0  0  0  0
 30 31  1  0  0  0  0
  1 32  1  0  0  0  0
  1 33  1  0  0  0  0
  1 34  1  0  0  0  0
  2 35  1  0  0  0  0
  3 36  1  0  0  0  0
  3 37  1  0  0  0  0
  3 38  1  0  0  0  0
  8 39  1  0  0  0  0
 10 40  1  0  0  0  0
 10 41  1  0  0  0  0
 14 42  1  0  0  0  0
 17 43  1  0  0  0  0
 17 44  1  0  0  0  0
 21 45  1  0  0  0  0
 21 46  1  0  0  0  0
 21 47  1  0  0  0  0
 22 48  1  0  0  0  0
 27 49  1  0  0  0  0
 27 50  1  0  0  0  0
 27 51  1  0  0  0  0
 29 52  1  0  0  0  0
 31 53  1  0  0  0  0
 31 54  1  0  0  0  0
 31 55  1  0  0  0  0
M  END
> <i_m_stars>
0

> <r_user_dG.exp>
-10.682977

$$$$
18652-1
  -OEChem-05162309453D
 Structure written by MMmdl.
 55 56  0     0  0  0  0  0  0999 V2000
   24.4145   10.2466   30.7179 C   0  0  0  0  0  0  0  0  0  0  0  0
   23.2191   11.0461   30.1836 C   0  0  0  0  0  0  0  0  0  0  0  0
   22.7154   10.5298   28.8282 C   0  0  0  0  0  0  0  0  0  0  0  0
   22.1815   11.2380   31.1572 O   0  0  0  0  0  0  0  0  0  0  0  0
   21.4027   10.2023   31.6505 C   0  0  0  0  0  0  0  0  0  0  0  0
   21.7305    8.9413   31.2769 N   0  0  0  0  0  0  0  0  0  0  0  0
   20.9695    7.9245   31.6884 C   0  0  0  0  0  0  0  0  0  0  0  0
   19.8692    8.0881   32.5165 C   0  0  0  0  0  0  0  0  0  0  0  0
   19.5323    9.3739   32.9065 C   0  0  0  0  0  0  0  0  0  0  0  0
   18.4017    9.4816   33.7079 N   0  0  0  0  0  0  0  0  0  0  0  0
   20.3042   10.4681   32.4772 C   0  0  0  0  0  0  0  0  0  0  0  0
   19.9961   11.8471   32.8385 C   0  0  0  0  0  0  0  0  0  0  0  0
   19.7584   12.9445   33.1218 N   0  0  0  0  0  0  0  0  0  0  0  0
   21.4458    6.7432   31.1644 N   0  0  0  0  0  0  0  0  0  0  0  0
   20.8524    5.5564   31.0443 C   0  0  0  0  0  0  0  0  0  0  0  0
   19.7091    5.3135   31.4219 O   0  0  0  0  0  0  0  0  0  0  0  0
   21.6443    4.4872   30.3016 C   0  0  0  0  0  0  0  0  0  0  0  0
   22.9984    4.1711   30.9304 C   0  0  0  0  0  0  0  0  0  0  0  0
   24.1219    4.9619   30.6449 C   0  0  0  0  0  0  0  0  0  0  0  0
   23.9394    6.0555   29.8171 O   0  0  0  0  0  0  0  0  0  0  0  0
   25.0655    6.8325   29.4151 C   0  0  0  0  0  0  0  0  0  0  0  0
   25.3547    4.6081   31.2081 C   0  0  0  0  0  0  0  0  0  0  0  0
   25.4606    3.5028   32.0584 C   0  0  0  0  0  0  0  0  0  0  0  0
   27.0696    3.0792   32.7393 S   0  0  0  0  0  0  0  0  0  0  0  0
   26.9129    2.7675   34.1691 O   0  0  0  0  0  0  0  0  0  0  0  0
   28.0400    4.1078   32.3298 O   0  0  0  0  0  0  0  0  0  0  0  0
   27.5188    1.5242   31.8684 C   0  0  0  0  0  0  0  0  0  0  0  0
   24.3410    2.7135   32.3514 C   0  0  0  0  0  0  0  0  0  0  0  0
   23.1128    3.0637   31.7753 C   0  0  0  0  0  0  0  0  0  0  0  0
   24.5003    1.6315   33.1956 O   0  0  0  0  0  0  0  0  0  0  0  0
   23.5378    0.5806   33.1826 C   0  0  0  0  0  0  0  0  0  0  0  0
   24.7297   10.6609   31.6869 H   0  0  0  0  0  0  0  0  0  0  0  0
   24.1232    9.1937   30.8467 H   0  0  0  0  0  0  0  0  0  0  0  0
   25.2479   10.3116   30.0029 H   0  0  0  0  0  0  0  0  0  0  0  0
   23.6219   12.0475   29.9715 H   0  0  0  0  0  0  0  0  0  0  0  0
   21.8615   11.1393   28.4974 H   0  0  0  0  0  0  0  0  0  0  0  0
   23.5244   10.5989   28.0861 H   0  0  0  0  0  0  0  0  0  0  0  0
   22.3996    9.4810   28.9298 H   0  0  0  0  0  0  0  0  0  0  0  0
   19.2917    7.2377   32.8477 H   0  0  0  0  0  0  0  0  0  0  0  0
   18.2433   10.4427   33.9343 H   0  0  0  0  0  0  0  0  0  0  0  0
   17.6093    9.1200   33.2166 H   0  0  0  0  0  0  0  0  0  0  0  0
   19.4992    4.4062   31.2342 H   0  0  0  0  0  0  0  0  0  0  0  0
   21.0469    3.5638   30.2837 H   0  0  0  0  0  0  0  0  0  0  0  0
   21.8135    4.8345   29.2717 H   0  0  0  0  0  0  0  0  0  0  0  0
   24.7314    7.6539   28.7642 H   0  0  0  0  0  0  0  0  0  0  0  0
   25.5605    7.2483   30.3051 H   0  0  0  0  0  0  0  0  0  0  0  0
   25.7738    6.1946   28.8661 H   0  0  0  0  0  0  0  0  0  0  0  0
   26.2329    5.1952   30.9833 H   0  0  0  0  0  0  0  0  0  0  0  0
   28.5019    1.1775   32.2196 H   0  0  0  0  0  0  0  0  0  0  0  0
   26.7619    0.7543   32.0791 H   0  0  0  0  0  0  0  0  0  0  0  0
   27.5611    1.7099   30.7850 H   0  0  0  0  0  0  0  0  0  0  0  0
   22.2382    2.4668   31.9881 H   0  0  0  0  0  0  0  0  0  0  0  0
   23.8253   -0.1897   33.9134 H   0  0  0  0  0  0  0  0  0  0  0  0
   22.5496    0.9854   33.4463 H   0  0  0  0  0  0  0  0  0  0  0  0
   23.4953    0.1349   32.1778 H   0  0  0  0  0  0  0  0  0  0  0  0
  1  2  1  0  0  0  0
  2  3  1  0  0  0  0
  2  4  1  0  0  0  0
  4  5  1  0  0  0  0
  5 11  2  0  0  0  0
  5  6  1  0  0  0  0
  6  7  2  0  0  0  0
  7  8  1  0  0  0  0
  7 14  1  0  0  0  0
  8  9  2  0  0  0  0
  9 10  1  0  0  0  0
  9 11  1  0  0  0  0
 11 12  1  0  0  0  0
 12 13  3  0  0  0  0
 14 15  2  0  0  0  0
 15 16  1  0  0  0  0
 15 17  1  0  0  0  0
 17 18  1  0  0  0  0
 18 29  2  0  0  0  0
 18 19  1  0  0  0  0
 19 20  1  0  0  0  0
 19 22  2  0  0  0  0
 20 21  1  0  0  0  0
 22 23  1  0  0  0  0
 23 24  1  0  0  0  0
 23 28  2  0  0  0  0
 24 25  2  0  0  0  0
 24 26  2  0  0  0  0
 24 27  1  0  0  0  0
 28 29  1  0  0  0  0
 28 30  1  0  0  0  0
 30 31  1  0  0  0  0
  1 32  1  0  0  0  0
  1 33  1  0  0  0  0
  1 34  1  0  0  0  0
  2 35  1  0  0  0  0
  3 36  1  0  0  0  0
  3 37  1  0  0  0  0
  3 38  1  0  0  0  0
  8 39  1  0  0  0  0
 10 40  1  0  0  0  0
 10 41  1  0  0  0  0
 16 42  1  0  0  0  0
 17 43  1  0  0  0  0
 17 44  1  0  0  0  0
 21 45  1  0  0  0  0
 21 46  1  0  0  0  0
 21 47  1  0  0  0  0
 22 48  1  0  0  0  0
 27 49  1  0  0  0  0
 27 50  1  0  0  0  0
 27 51  1  0  0  0  0
 29 52  1  0  0  0  0
 31 53  1  0  0  0  0
 31 54  1  0  0  0  0
 31 55  1  0  0  0  0
M  END
> <i_m_stars>
0

> <r_user_dG.exp>
-10.682977

$$$$
18652-1
  -OEChem-05162309453D
 Structure written by MMmdl.
 55 56  0     0  0  0  0  0  0999 V2000
   24.4145   10.2466   30.7179 C   0  0  0  0  0  0  0  0  0  0  0  0
   23.2191   11.0461   30.1836 C   0  0  0  0  0  0  0  0  0  0  0  0
   22.7154   10.5298   28.8282 C   0  0  0  0  0  0  0  0  0  0  0  0
   22.1815   11.2380   31.1572 O   0  0  0  0  0  0  0  0  0  0  0  0
   21.4027   10.2023   31.6505 C   0  0  0  0  0  0  0  0  0  0  0  0
   21.7305    8.9413   31.2769 N   0  0  0  0  0  0  0  0  0  0  0  0
   20.9695    7.9245   31.6884 C   0  0  0  0  0  0  0  0  0  0  0  0
   19.8692    8.0881   32.5165 C   0  0  0  0  0  0  0  0  0  0  0  0
   19.5323    9.3739   32.9065 C   0  0  0  0  0  0  0  0  0  0  0  0
   18.4017    9.4816   33.7079 N   0  0  0  0  0  0  0  0  0  0  0  0
   20.3042   10.4681   32.4772 C   0  0  0  0  0  0  0  0  0  0  0  0
   19.9961   11.8471   32.8385 C   0  0  0  0  0  0  0  0  0  0  0  0
   19.7584   12.9445   33.1218 N   0  0  0  0  0  0  0  0  0  0  0  0
   21.4458    6.7432   31.1644 N   0  0  0  0  0  0  0  0  0  0  0  0
   20.8524    5.5564   31.0443 C   0  0  0  0  0  0  0  0  0  0  0  0
   19.7091    5.3135   31.4219 O   0  0  0  0  0  0  0  0  0  0  0  0
   21.6443    4.4872   30.3016 C   0  0  0  0  0  0  0  0  0  0  0  0
   22.9984    4.1711   30.9304 C   0  0  0  0  0  0  0  0  0  0  0  0
   24.1219    4.9619   30.6449 C   0  0  0  0  0  0  0  0  0  0  0  0
   23.9394    6.0555   29.8171 O   0  0  0  0  0  0  0  0  0  0  0  0
   25.0655    6.8325   29.4151 C   0  0  0  0  0  0  0  0  0  0  0  0
   25.3547    4.6081   31.2081 C   0  0  0  0  0  0  0  0  0  0  0  0
   25.4606    3.5028   32.0584 C   0  0  0  0  0  0  0  0  0  0  0  0
   27.0696    3.0792   32.7393 S   0  0  0  0  0  0  0  0  0  0  0  0
   26.9129    2.7675   34.1691 O   0  0  0  0  0  0  0  0  0  0  0  0
   28.0400    4.1078   32.3298 O   0  0  0  0  0  0  0  0  0  0  0  0
   27.5188    1.5242   31.8684 C   0  0  0  0  0  0  0  0  0  0  0  0
   24.3410    2.7135   32.3514 C   0  0  0  0  0  0  0  0  0  0  0  0
   23.1128    3.0637   31.7753 C   0  0  0  0  0  0  0  0  0  0  0  0
   24.5003    1.6315   33.1956 O   0  0  0  0  0  0  0  0  0  0  0  0
   23.5378    0.5806   33.1826 C   0  0  0  0  0  0  0  0  0  0  0  0
   24.7297   10.6609   31.6869 H   0  0  0  0  0  0  0  0  0  0  0  0
   24.1232    9.1937   30.8467 H   0  0  0  0  0  0  0  0  0  0  0  0
   25.2479   10.3116   30.0029 H   0  0  0  0  0  0  0  0  0  0  0  0
   23.6219   12.0475   29.9715 H   0  0  0  0  0  0  0  0  0  0  0  0
   21.8615   11.1393   28.4974 H   0  0  0  0  0  0  0  0  0  0  0  0
   23.5244   10.5989   28.0861 H   0  0  0  0  0  0  0  0  0  0  0  0
   22.3996    9.4810   28.9298 H   0  0  0  0  0  0  0  0  0  0  0  0
   22.5310    8.7749   30.7012 H   0  0  0  0  0  0  0  0  0  0  0  0
   19.2917    7.2377   32.8477 H   0  0  0  0  0  0  0  0  0  0  0  0
   18.1997   10.4319   33.9450 H   0  0  0  0  0  0  0  0  0  0  0  0
   22.3839    6.7824   30.8202 H   0  0  0  0  0  0  0  0  0  0  0  0
   21.0469    3.5638   30.2837 H   0  0  0  0  0  0  0  0  0  0  0  0
   21.8135    4.8345   29.2717 H   0  0  0  0  0  0  0  0  0  0  0  0
   24.7314    7.6539   28.7642 H   0  0  0  0  0  0  0  0  0  0  0  0
   25.5605    7.2483   30.3051 H   0  0  0  0  0  0  0  0  0  0  0  0
   25.7738    6.1946   28.8661 H   0  0  0  0  0  0  0  0  0  0  0  0
   26.2329    5.1952   30.9833 H   0  0  0  0  0  0  0  0  0  0  0  0
   28.5019    1.1775   32.2196 H   0  0  0  0  0  0  0  0  0  0  0  0
   26.7619    0.7543   32.0791 H   0  0  0  0  0  0  0  0  0  0  0  0
   27.5611    1.7099   30.7850 H   0  0  0  0  0  0  0  0  0  0  0  0
   22.2382    2.4668   31.9881 H   0  0  0  0  0  0  0  0  0  0  0  0
   23.8253   -0.1897   33.9134 H   0  0  0  0  0  0  0  0  0  0  0  0
   22.5496    0.9854   33.4463 H   0  0  0  0  0  0  0  0  0  0  0  0
   23.4953    0.1349   32.1778 H   0  0  0  0  0  0  0  0  0  0  0  0
  1  2  1  0  0  0  0
  2  3  1  0  0  0  0
  2  4  1  0  0  0  0
  4  5  1  0  0  0  0
  5 11  2  0  0  0  0
  5  6  1  0  0  0  0
  6  7  1  0  0  0  0
  7  8  2  0  0  0  0
  7 14  1  0  0  0  0
  8  9  1  0  0  0  0
  9 10  2  0  0  0  0
  9 11  1  0  0  0  0
 11 12  1  0  0  0  0
 12 13  3  0  0  0  0
 14 15  1  0  0  0  0
 15 16  2  0  0  0  0
 15 17  1  0  0  0  0
 17 18  1  0  0  0  0
 18 29  2  0  0  0  0
 18 19  1  0  0  0  0
 19 20  1  0  0  0  0
 19 22  2  0  0  0  0
 20 21  1  0  0  0  0
 22 23  1  0  0  0  0
 23 24  1  0  0  0  0
 23 28  2  0  0  0  0
 24 25  2  0  0  0  0
 24 26  2  0  0  0  0
 24 27  1  0  0  0  0
 28 29  1  0  0  0  0
 28 30  1  0  0  0  0
 30 31  1  0  0  0  0
  1 32  1  0  0  0  0
  1 33  1  0  0  0  0
  1 34  1  0  0  0  0
  2 35  1  0  0  0  0
  3 36  1  0  0  0  0
  3 37  1  0  0  0  0
  3 38  1  0  0  0  0
  6 39  1  0  0  0  0
  8 40  1  0  0  0  0
 10 41  1  0  0  0  0
 14 42  1  0  0  0  0
 17 43  1  0  0  0  0
 17 44  1  0  0  0  0
 21 45  1  0  0  0  0
 21 46  1  0  0  0  0
 21 47  1  0  0  0  0
 22 48  1  0  0  0  0
 27 49  1  0  0  0  0
 27 50  1  0  0  0  0
 27 51  1  0  0  0  0
 29 52  1  0  0  0  0
 31 53  1  0  0  0  0
 31 54  1  0  0  0  0
 31 55  1  0  0  0  0
M  END
> <i_m_stars>
0

> <r_user_dG.exp>
-10.682977

$$$$
18652-1
  -OEChem-05162309453D
 Structure written by MMmdl.
 55 56  0     0  0  0  0  0  0999 V2000
   24.4145   10.2466   30.7179 C   0  0  0  0  0  0  0  0  0  0  0  0
   23.2191   11.0461   30.1836 C   0  0  0  0  0  0  0  0  0  0  0  0
   22.7154   10.5298   28.8282 C   0  0  0  0  0  0  0  0  0  0  0  0
   22.1815   11.2380   31.1572 O   0  0  0  0  0  0  0  0  0  0  0  0
   21.4027   10.2023   31.6505 C   0  0  0  0  0  0  0  0  0  0  0  0
   21.7305    8.9413   31.2769 N   0  0  0  0  0  0  0  0  0  0  0  0
   20.9695    7.9245   31.6884 C   0  0  0  0  0  0  0  0  0  0  0  0
   19.8692    8.0881   32.5165 C   0  0  0  0  0  0  0  0  0  0  0  0
   19.5323    9.3739   32.9065 C   0  0  0  0  0  0  0  0  0  0  0  0
   18.4017    9.4816   33.7079 N   0  0  0  0  0  0  0  0  0  0  0  0
   20.3042   10.4681   32.4772 C   0  0  0  0  0  0  0  0  0  0  0  0
   19.9961   11.8471   32.8385 C   0  0  0  0  0  0  0  0  0  0  0  0
   19.7584   12.9445   33.1218 N   0  0  0  0  0  0  0  0  0  0  0  0
   21.4458    6.7432   31.1644 N   0  0  0  0  0  0  0  0  0  0  0  0
   20.8524    5.5564   31.0443 C   0  0  0  0  0  0  0  0  0  0  0  0
   19.7091    5.3135   31.4219 O   0  0  0  0  0  0  0  0  0  0  0  0
   21.6443    4.4872   30.3016 C   0  0  0  0  0  0  0  0  0  0  0  0
   22.9984    4.1711   30.9304 C   0  0  0  0  0  0  0  0  0  0  0  0
   24.1219    4.9619   30.6449 C   0  0  0  0  0  0  0  0  0  0  0  0
   23.9394    6.0555   29.8171 O   0  0  0  0  0  0  0  0  0  0  0  0
   25.0655    6.8325   29.4151 C   0  0  0  0  0  0  0  0  0  0  0  0
   25.3547    4.6081   31.2081 C   0  0  0  0  0  0  0  0  0  0  0  0
   25.4606    3.5028   32.0584 C   0  0  0  0  0  0  0  0  0  0  0  0
   27.0696    3.0792   32.7393 S   0  0  0  0  0  0  0  0  0  0  0  0
   26.9129    2.7675   34.1691 O   0  0  0  0  0  0  0  0  0  0  0  0
   28.0400    4.1078   32.3298 O   0  0  0  0  0  0  0  0  0  0  0  0
   27.5188    1.5242   31.8684 C   0  0  0  0  0  0  0  0  0  0  0  0
   24.3410    2.7135   32.3514 C   0  0  0  0  0  0  0  0  0  0  0  0
   23.1128    3.0637   31.7753 C   0  0  0  0  0  0  0  0  0  0  0  0
   24.5003    1.6315   33.1956 O   0  0  0  0  0  0  0  0  0  0  0  0
   23.5378    0.5806   33.1826 C   0  0  0  0  0  0  0  0  0  0  0  0
   24.7297   10.6609   31.6869 H   0  0  0  0  0  0  0  0  0  0  0  0
   24.1232    9.1937   30.8467 H   0  0  0  0  0  0  0  0  0  0  0  0
   25.2479   10.3116   30.0029 H   0  0  0  0  0  0  0  0  0  0  0  0
   23.6219   12.0475   29.9715 H   0  0  0  0  0  0  0  0  0  0  0  0
   21.8615   11.1393   28.4974 H   0  0  0  0  0  0  0  0  0  0  0  0
   23.5244   10.5989   28.0861 H   0  0  0  0  0  0  0  0  0  0  0  0
   22.3996    9.4810   28.9298 H   0  0  0  0  0  0  0  0  0  0  0  0
   22.5310    8.7749   30.7012 H   0  0  0  0  0  0  0  0  0  0  0  0
   19.2917    7.2377   32.8477 H   0  0  0  0  0  0  0  0  0  0  0  0
   18.2433   10.4427   33.9343 H   0  0  0  0  0  0  0  0  0  0  0  0
   17.6093    9.1200   33.2166 H   0  0  0  0  0  0  0  0  0  0  0  0
   21.0469    3.5638   30.2837 H   0  0  0  0  0  0  0  0  0  0  0  0
   21.8135    4.8345   29.2717 H   0  0  0  0  0  0  0  0  0  0  0  0
   24.7314    7.6539   28.7642 H   0  0  0  0  0  0  0  0  0  0  0  0
   25.5605    7.2483   30.3051 H   0  0  0  0  0  0  0  0  0  0  0  0
   25.7738    6.1946   28.8661 H   0  0  0  0  0  0  0  0  0  0  0  0
   26.2329    5.1952   30.9833 H   0  0  0  0  0  0  0  0  0  0  0  0
   28.5019    1.1775   32.2196 H   0  0  0  0  0  0  0  0  0  0  0  0
   26.7619    0.7543   32.0791 H   0  0  0  0  0  0  0  0  0  0  0  0
   27.5611    1.7099   30.7850 H   0  0  0  0  0  0  0  0  0  0  0  0
   22.2382    2.4668   31.9881 H   0  0  0  0  0  0  0  0  0  0  0  0
   23.8253   -0.1897   33.9134 H   0  0  0  0  0  0  0  0  0  0  0  0
   22.5496    0.9854   33.4463 H   0  0  0  0  0  0  0  0  0  0  0  0
   23.4953    0.1349   32.1778 H   0  0  0  0  0  0  0  0  0  0  0  0
  1  2  1  0  0  0  0
  2  3  1  0  0  0  0
  2  4  1  0  0  0  0
  4  5  1  0  0  0  0
  5 11  2  0  0  0  0
  5  6  1  0  0  0  0
  6  7  1  0  0  0  0
  7  8  1  0  0  0  0
  7 14  2  0  0  0  0
  8  9  2  0  0  0  0
  9 10  1  0  0  0  0
  9 11  1  0  0  0  0
 11 12  1  0  0  0  0
 12 13  3  0  0  0  0
 14 15  1  0  0  0  0
 15 16  2  0  0  0  0
 15 17  1  0  0  0  0
 17 18  1  0  0  0  0
 18 29  2  0  0  0  0
 18 19  1  0  0  0  0
 19 20  1  0  0  0  0
 19 22  2  0  0  0  0
 20 21  1  0  0  0  0
 22 23  1  0  0  0  0
 23 24  1  0  0  0  0
 23 28  2  0  0  0  0
 24 25  2  0  0  0  0
 24 26  2  0  0  0  0
 24 27  1  0  0  0  0
 28 29  1  0  0  0  0
 28 30  1  0  0  0  0
 30 31  1  0  0  0  0
  1 32  1  0  0  0  0
  1 33  1  0  0  0  0
  1 34  1  0  0  0  0
  2 35  1  0  0  0  0
  3 36  1  0  0  0  0
  3 37  1  0  0  0  0
  3 38  1  0  0  0  0
  6 39  1  0  0  0  0
  8 40  1  0  0  0  0
 10 41  1  0  0  0  0
 10 42  1  0  0  0  0
 17 43  1  0  0  0  0
 17 44  1  0  0  0  0
 21 45  1  0  0  0  0
 21 46  1  0  0  0  0
 21 47  1  0  0  0  0
 22 48  1  0  0  0  0
 27 49  1  0  0  0  0
 27 50  1  0  0  0  0
 27 51  1  0  0  0  0
 29 52  1  0  0  0  0
 31 53  1  0  0  0  0
 31 54  1  0  0  0  0
 31 55  1  0  0  0  0
M  END
> <i_m_stars>
0

> <r_user_dG.exp>
-10.682977

$$$$
18652-1
  -OEChem-05162309453D
 Structure written by MMmdl.
 55 56  0     0  0  0  0  0  0999 V2000
   24.4145   10.2466   30.7179 C   0  0  0  0  0  0  0  0  0  0  0  0
   23.2191   11.0461   30.1836 C   0  0  0  0  0  0  0  0  0  0  0  0
   22.7154   10.5298   28.8282 C   0  0  0  0  0  0  0  0  0  0  0  0
   22.1815   11.2380   31.1572 O   0  0  0  0  0  0  0  0  0  0  0  0
   21.4027   10.2023   31.6505 C   0  0  0  0  0  0  0  0  0  0  0  0
   21.7305    8.9413   31.2769 N   0  0  0  0  0  0  0  0  0  0  0  0
   20.9695    7.9245   31.6884 C   0  0  0  0  0  0  0  0  0  0  0  0
   19.8692    8.0881   32.5165 C   0  0  0  0  0  0  0  0  0  0  0  0
   19.5323    9.3739   32.9065 C   0  0  0  0  0  0  0  0  0  0  0  0
   18.4017    9.4816   33.7079 N   0  0  0  0  0  0  0  0  0  0  0  0
   20.3042   10.4681   32.4772 C   0  0  0  0  0  0  0  0  0  0  0  0
   19.9961   11.8471   32.8385 C   0  0  0  0  0  0  0  0  0  0  0  0
   19.7584   12.9445   33.1218 N   0  0  0  0  0  0  0  0  0  0  0  0
   21.4458    6.7432   31.1644 N   0  0  0  0  0  0  0  0  0  0  0  0
   20.8524    5.5564   31.0443 C   0  0  0  0  0  0  0  0  0  0  0  0
   19.7091    5.3135   31.4219 O   0  0  0  0  0  0  0  0  0  0  0  0
   21.6443    4.4872   30.3016 C   0  0  0  0  0  0  0  0  0  0  0  0
   22.9984    4.1711   30.9304 C   0  0  0  0  0  0  0  0  0  0  0  0
   24.1219    4.9619   30.6449 C   0  0  0  0  0  0  0  0  0  0  0  0
   23.9394    6.0555   29.8171 O   0  0  0  0  0  0  0  0  0  0  0  0
   25.0655    6.8325   29.4151 C   0  0  0  0  0  0  0  0  0  0  0  0
   25.3547    4.6081   31.2081 C   0  0  0  0  0  0  0  0  0  0  0  0
   25.4606    3.5028   32.0584 C   0  0  0  0  0  0  0  0  0  0  0  0
   27.0696    3.0792   32.7393 S   0  0  0  0  0  0  0  0  0  0  0  0
   26.9129    2.7675   34.1691 O   0  0  0  0  0  0  0  0  0  0  0  0
   28.0400    4.1078   32.3298 O   0  0  0  0  0  0  0  0  0  0  0  0
   27.5188    1.5242   31.8684 C   0  0  0  0  0  0  0  0  0  0  0  0
   24.3410    2.7135   32.3514 C   0  0  0  0  0  0  0  0  0  0  0  0
   23.1128    3.0637   31.7753 C   0  0  0  0  0  0  0  0  0  0  0  0
   24.5003    1.6315   33.1956 O   0  0  0  0  0  0  0  0  0  0  0  0
   23.5378    0.5806   33.1826 C   0  0  0  0  0  0  0  0  0  0  0  0
   24.7297   10.6609   31.6869 H   0  0  0  0  0  0  0  0  0  0  0  0
   24.1232    9.1937   30.8467 H   0  0  0  0  0  0  0  0  0  0  0  0
   25.2479   10.3116   30.0029 H   0  0  0  0  0  0  0  0  0  0  0  0
   23.6219   12.0475   29.9715 H   0  0  0  0  0  0  0  0  0  0  0  0
   21.8615   11.1393   28.4974 H   0  0  0  0  0  0  0  0  0  0  0  0
   23.5244   10.5989   28.0861 H   0  0  0  0  0  0  0  0  0  0  0  0
   22.3996    9.4810   28.9298 H   0  0  0  0  0  0  0  0  0  0  0  0
   22.5310    8.7749   30.7012 H   0  0  0  0  0  0  0  0  0  0  0  0
   19.2917    7.2377   32.8477 H   0  0  0  0  0  0  0  0  0  0  0  0
   18.1997   10.4319   33.9450 H   0  0  0  0  0  0  0  0  0  0  0  0
   19.4992    4.4062   31.2342 H   0  0  0  0  0  0  0  0  0  0  0  0
   21.0469    3.5638   30.2837 H   0  0  0  0  0  0  0  0  0  0  0  0
   21.8135    4.8345   29.2717 H   0  0  0  0  0  0  0  0  0  0  0  0
   24.7314    7.6539   28.7642 H   0  0  0  0  0  0  0  0  0  0  0  0
   25.5605    7.2483   30.3051 H   0  0  0  0  0  0  0  0  0  0  0  0
   25.7738    6.1946   28.8661 H   0  0  0  0  0  0  0  0  0  0  0  0
   26.2329    5.1952   30.9833 H   0  0  0  0  0  0  0  0  0  0  0  0
   28.5019    1.1775   32.2196 H   0  0  0  0  0  0  0  0  0  0  0  0
   26.7619    0.7543   32.0791 H   0  0  0  0  0  0  0  0  0  0  0  0
   27.5611    1.7099   30.7850 H   0  0  0  0  0  0  0  0  0  0  0  0
   22.2382    2.4668   31.9881 H   0  0  0  0  0  0  0  0  0  0  0  0
   23.8253   -0.1897   33.9134 H   0  0  0  0  0  0  0  0  0  0  0  0
   22.5496    0.9854   33.4463 H   0  0  0  0  0  0  0  0  0  0  0  0
   23.4953    0.1349   32.1778 H   0  0  0  0  0  0  0  0  0  0  0  0
  1  2  1  0  0  0  0
  2  3  1  0  0  0  0
  2  4  1  0  0  0  0
  4  5  1  0  0  0  0
  5 11  2  0  0  0  0
  5  6  1  0  0  0  0
  6  7  1  0  0  0  0
  7  8  2  0  0  0  0
  7 14  1  0  0  0  0
  8  9  1  0  0  0  0
  9 10  2  0  0  0  0
  9 11  1  0  0  0  0
 11 12  1  0  0  0  0
 12 13  3  0  0  0  0
 14 15  2  0  0  0  0
 15 16  1  0  0  0  0
 15 17  1  0  0  0  0
 17 18  1  0  0  0  0
 18 29  2  0  0  0  0
 18 19  1  0  0  0  0
 19 20  1  0  0  0  0
 19 22  2  0  0  0  0
 20 21  1  0  0  0  0
 22 23  1  0  0  0  0
 23 24  1  0  0  0  0
 23 28  2  0  0  0  0
 24 25  2  0  0  0  0
 24 26  2  0  0  0  0
 24 27  1  0  0  0  0
 28 29  1  0  0  0  0
 28 30  1  0  0  0  0
 30 31  1  0  0  0  0
  1 32  1  0  0  0  0
  1 33  1  0  0  0  0
  1 34  1  0  0  0  0
  2 35  1  0  0  0  0
  3 36  1  0  0  0  0
  3 37  1  0  0  0  0
  3 38  1  0  0  0  0
  6 39  1  0  0  0  0
  8 40  1  0  0  0  0
 10 41  1  0  0  0  0
 16 42  1  0  0  0  0
 17 43  1  0  0  0  0
 17 44  1  0  0  0  0
 21 45  1  0  0  0  0
 21 46  1  0  0  0  0
 21 47  1  0  0  0  0
 22 48  1  0  0  0  0
 27 49  1  0  0  0  0
 27 50  1  0  0  0  0
 27 51  1  0  0  0  0
 29 52  1  0  0  0  0
 31 53  1  0  0  0  0
 31 54  1  0  0  0  0
 31 55  1  0  0  0  0
M  END
> <i_m_stars>
0

> <r_user_dG.exp>
-10.682977

$$$$
18652-1
  -OEChem-05162309453D
 Structure written by MMmdl.
 55 56  0     1  0  0  0  0  0999 V2000
   24.4145   10.2466   30.7179 C   0  0  0  0  0  0  0  0  0  0  0  0
   23.2191   11.0461   30.1836 C   0  0  0  0  0  0  0  0  0  0  0  0
   22.7154   10.5298   28.8282 C   0  0  0  0  0  0  0  0  0  0  0  0
   22.1815   11.2380   31.1572 O   0  0  0  0  0  0  0  0  0  0  0  0
   21.4027   10.2023   31.6505 C   0  0  0  0  0  0  0  0  0  0  0  0
   21.7305    8.9413   31.2769 N   0  0  0  0  0  0  0  0  0  0  0  0
   20.9695    7.9245   31.6884 C   0  0  0  0  0  0  0  0  0  0  0  0
   19.8692    8.0881   32.5165 C   0  0  0  0  0  0  0  0  0  0  0  0
   19.5323    9.3739   32.9065 C   0  0  0  0  0  0  0  0  0  0  0  0
   18.4017    9.4816   33.7079 N   0  0  0  0  0  0  0  0  0  0  0  0
   20.3042   10.4681   32.4772 C   0  0  3  0  0  0  0  0  0  0  0  0
   19.9961   11.8471   32.8385 C   0  0  0  0  0  0  0  0  0  0  0  0
   19.7584   12.9445   33.1218 N   0  0  0  0  0  0  0  0  0  0  0  0
   21.4458    6.7432   31.1644 N   0  0  0  0  0  0  0  0  0  0  0  0
   20.8524    5.5564   31.0443 C   0  0  0  0  0  0  0  0  0  0  0  0
   19.7091    5.3135   31.4219 O   0  0  0  0  0  0  0  0  0  0  0  0
   21.6443    4.4872   30.3016 C   0  0  0  0  0  0  0  0  0  0  0  0
   22.9984    4.1711   30.9304 C   0  0  0  0  0  0  0  0  0  0  0  0
   24.1219    4.9619   30.6449 C   0  0  0  0  0  0  0  0  0  0  0  0
   23.9394    6.0555   29.8171 O   0  0  0  0  0  0  0  0  0  0  0  0
   25.0655    6.8325   29.4151 C   0  0  0  0  0  0  0  0  0  0  0  0
   25.3547    4.6081   31.2081 C   0  0  0  0  0  0  0  0  0  0  0  0
   25.4606    3.5028   32.0584 C   0  0  0  0  0  0  0  0  0  0  0  0
   27.0696    3.0792   32.7393 S   0  0  0  0  0  0  0  0  0  0  0  0
   26.9129    2.7675   34.1691 O   0  0  0  0  0  0  0  0  0  0  0  0
   28.0400    4.1078   32.3298 O   0  0  0  0  0  0  0  0  0  0  0  0
   27.5188    1.5242   31.8684 C   0  0  0  0  0  0  0  0  0  0  0  0
   24.3410    2.7135   32.3514 C   0  0  0  0  0  0  0  0  0  0  0  0
   23.1128    3.0637   31.7753 C   0  0  0  0  0  0  0  0  0  0  0  0
   24.5003    1.6315   33.1956 O   0  0  0  0  0  0  0  0  0  0  0  0
   23.5378    0.5806   33.1826 C   0  0  0  0  0  0  0  0  0  0  0  0
   24.7297   10.6609   31.6869 H   0  0  0  0  0  0  0  0  0  0  0  0
   24.1232    9.1937   30.8467 H   0  0  0  0  0  0  0  0  0  0  0  0
   25.2479   10.3116   30.0029 H   0  0  0  0  0  0  0  0  0  0  0  0
   23.6219   12.0475   29.9715 H   0  0  0  0  0  0  0  0  0  0  0  0
   21.8615   11.1393   28.4974 H   0  0  0  0  0  0  0  0  0  0  0  0
   23.5244   10.5989   28.0861 H   0  0  0  0  0  0  0  0  0  0  0  0
   22.3996    9.4810   28.9298 H   0  0  0  0  0  0  0  0  0  0  0  0
   18.9992    7.6676   31.9908 H   0  0  0  0  0  0  0  0  0  0  0  0
   20.0600    7.5085   33.4317 H   0  0  0  0  0  0  0  0  0  0  0  0
   18.1997   10.4319   33.9450 H   0  0  0  0  0  0  0  0  0  0  0  0
   20.9440   10.3726   33.3669 H   0  0  0  0  0  0  0  0  0  0  0  0
   21.0469    3.5638   30.2837 H   0  0  0  0  0  0  0  0  0  0  0  0
   21.8135    4.8345   29.2717 H   0  0  0  0  0  0  0  0  0  0  0  0
   24.7314    7.6539   28.7642 H   0  0  0  0  0  0  0  0  0  0  0  0
   25.5605    7.2483   30.3051 H   0  0  0  0  0  0  0  0  0  0  0  0
   25.7738    6.1946   28.8661 H   0  0  0  0  0  0  0  0  0  0  0  0
   26.2329    5.1952   30.9833 H   0  0  0  0  0  0  0  0  0  0  0  0
   28.5019    1.1775   32.2196 H   0  0  0  0  0  0  0  0  0  0  0  0
   26.7619    0.7543   32.0791 H   0  0  0  0  0  0  0  0  0  0  0  0
   27.5611    1.7099   30.7850 H   0  0  0  0  0  0  0  0  0  0  0  0
   22.2382    2.4668   31.9881 H   0  0  0  0  0  0  0  0  0  0  0  0
   23.8253   -0.1897   33.9134 H   0  0  0  0  0  0  0  0  0  0  0  0
   22.5496    0.9854   33.4463 H   0  0  0  0  0  0  0  0  0  0  0  0
   23.4953    0.1349   32.1778 H   0  0  0  0  0  0  0  0  0  0  0  0
  1  2  1  0  0  0  0
  2  3  1  0  0  0  0
  2  4  1  0  0  0  0
  4  5  1  0  0  0  0
  5 11  1  0  0  0  0
  5  6  2  0  0  0  0
  6  7  1  0  0  0  0
  7  8  1  0  0  0  0
  7 14  2  0  0  0  0
  8  9  1  0  0  0  0
  9 10  2  0  0  0  0
  9 11  1  0  0  0  0
 11 12  1  0  0  0  0
 12 13  3  0  0  0  0
 14 15  1  0  0  0  0
 15 16  2  0  0  0  0
 15 17  1  0  0  0  0
 17 18  1  0  0  0  0
 18 29  2  0  0  0  0
 18 19  1  0  0  0  0
 19 20  1  0  0  0  0
 19 22  2  0  0  0  0
 20 21  1  0  0  0  0
 22 23  1  0  0  0  0
 23 24  1  0  0  0  0
 23 28  2  0  0  0  0
 24 25  2  0  0  0  0
 24 26  2  0  0  0  0
 24 27  1  0  0  0  0
 28 29  1  0  0  0  0
 28 30  1  0  0  0  0
 30 31  1  0  0  0  0
  1 32  1  0  0  0  0
  1 33  1  0  0  0  0
  1 34  1  0  0  0  0
  2 35  1  0  0  0  0
  3 36  1  0  0  0  0
  3 37  1  0  0  0  0
  3 38  1  0  0  0  0
  8 39  1  0  0  0  0
  8 40  1  0  0  0  0
 10 41  1  0  0  0  0
 11 42  1  0  0  0  0
 17 43  1  0  0  0  0
 17 44  1  0  0  0  0
 21 45  1  0  0  0  0
 21 46  1  0  0  0  0
 21 47  1  0  0  0  0
 22 48  1  0  0  0  0
 27 49  1  0  0  0  0
 27 50  1  0  0  0  0
 27 51  1  0  0  0  0
 29 52  1  0  0  0  0
 31 53  1  0  0  0  0
 31 54  1  0  0  0  0
 31 55  1  0  0  0  0
M  END
> <i_m_stars>
0

> <r_user_dG.exp>
-10.682977

$$$$
18652-1
  -OEChem-05162309453D
 Structure written by MMmdl.
 55 56  0     1  0  0  0  0  0999 V2000
   24.4145   10.2466   30.7179 C   0  0  0  0  0  0  0  0  0  0  0  0
   23.2191   11.0461   30.1836 C   0  0  0  0  0  0  0  0  0  0  0  0
   22.7154   10.5298   28.8282 C   0  0  0  0  0  0  0  0  0  0  0  0
   22.1815   11.2380   31.1572 O   0  0  0  0  0  0  0  0  0  0  0  0
   21.4027   10.2023   31.6505 C   0  0  0  0  0  0  0  0  0  0  0  0
   21.7305    8.9413   31.2769 N   0  0  0  0  0  0  0  0  0  0  0  0
   20.9695    7.9245   31.6884 C   0  0  0  0  0  0  0  0  0  0  0  0
   19.8692    8.0881   32.5165 C   0  0  0  0  0  0  0  0  0  0  0  0
   19.5323    9.3739   32.9065 C   0  0  0  0  0  0  0  0  0  0  0  0
   18.4017    9.4816   33.7079 N   0  0  0  0  0  0  0  0  0  0  0  0
   20.3042   10.4681   32.4772 C   0  0  3  0  0  0  0  0  0  0  0  0
   19.9961   11.8471   32.8385 C   0  0  0  0  0  0  0  0  0  0  0  0
   19.7584   12.9445   33.1218 N   0  0  0  0  0  0  0  0  0  0  0  0
   21.4458    6.7432   31.1644 N   0  0  0  0  0  0  0  0  0  0  0  0
   20.8524    5.5564   31.0443 C   0  0  0  0  0  0  0  0  0  0  0  0
   19.7091    5.3135   31.4219 O   0  0  0  0  0  0  0  0  0  0  0  0
   21.6443    4.4872   30.3016 C   0  0  0  0  0  0  0  0  0  0  0  0
   22.9984    4.1711   30.9304 C   0  0  0  0  0  0  0  0  0  0  0  0
   24.1219    4.9619   30.6449 C   0  0  0  0  0  0  0  0  0  0  0  0
   23.9394    6.0555   29.8171 O   0  0  0  0  0  0  0  0  0  0  0  0
   25.0655    6.8325   29.4151 C   0  0  0  0  0  0  0  0  0  0  0  0
   25.3547    4.6081   31.2081 C   0  0  0  0  0  0  0  0  0  0  0  0
   25.4606    3.5028   32.0584 C   0  0  0  0  0  0  0  0  0  0  0  0
   27.0696    3.0792   32.7393 S   0  0  0  0  0  0  0  0  0  0  0  0
   26.9129    2.7675   34.1691 O   0  0  0  0  0  0  0  0  0  0  0  0
   28.0400    4.1078   32.3298 O   0  0  0  0  0  0  0  0  0  0  0  0
   27.5188    1.5242   31.8684 C   0  0  0  0  0  0  0  0  0  0  0  0
   24.3410    2.7135   32.3514 C   0  0  0  0  0  0  0  0  0  0  0  0
   23.1128    3.0637   31.7753 C   0  0  0  0  0  0  0  0  0  0  0  0
   24.5003    1.6315   33.1956 O   0  0  0  0  0  0  0  0  0  0  0  0
   23.5378    0.5806   33.1826 C   0  0  0  0  0  0  0  0  0  0  0  0
   24.7297   10.6609   31.6869 H   0  0  0  0  0  0  0  0  0  0  0  0
   24.1232    9.1937   30.8467 H   0  0  0  0  0  0  0  0  0  0  0  0
   25.2479   10.3116   30.0029 H   0  0  0  0  0  0  0  0  0  0  0  0
   23.6219   12.0475   29.9715 H   0  0  0  0  0  0  0  0  0  0  0  0
   21.8615   11.1393   28.4974 H   0  0  0  0  0  0  0  0  0  0  0  0
   23.5244   10.5989   28.0861 H   0  0  0  0  0  0  0  0  0  0  0  0
   22.3996    9.4810   28.9298 H   0  0  0  0  0  0  0  0  0  0  0  0
   19.2917    7.2377   32.8477 H   0  0  0  0  0  0  0  0  0  0  0  0
   18.1997   10.4319   33.9450 H   0  0  0  0  0  0  0  0  0  0  0  0
   20.9440   10.3726   33.3669 H   0  0  0  0  0  0  0  0  0  0  0  0
   22.3839    6.7824   30.8202 H   0  0  0  0  0  0  0  0  0  0  0  0
   21.0469    3.5638   30.2837 H   0  0  0  0  0  0  0  0  0  0  0  0
   21.8135    4.8345   29.2717 H   0  0  0  0  0  0  0  0  0  0  0  0
   24.7314    7.6539   28.7642 H   0  0  0  0  0  0  0  0  0  0  0  0
   25.5605    7.2483   30.3051 H   0  0  0  0  0  0  0  0  0  0  0  0
   25.7738    6.1946   28.8661 H   0  0  0  0  0  0  0  0  0  0  0  0
   26.2329    5.1952   30.9833 H   0  0  0  0  0  0  0  0  0  0  0  0
   28.5019    1.1775   32.2196 H   0  0  0  0  0  0  0  0  0  0  0  0
   26.7619    0.7543   32.0791 H   0  0  0  0  0  0  0  0  0  0  0  0
   27.5611    1.7099   30.7850 H   0  0  0  0  0  0  0  0  0  0  0  0
   22.2382    2.4668   31.9881 H   0  0  0  0  0  0  0  0  0  0  0  0
   23.8253   -0.1897   33.9134 H   0  0  0  0  0  0  0  0  0  0  0  0
   22.5496    0.9854   33.4463 H   0  0  0  0  0  0  0  0  0  0  0  0
   23.4953    0.1349   32.1778 H   0  0  0  0  0  0  0  0  0  0  0  0
  1  2  1  0  0  0  0
  2  3  1  0  0  0  0
  2  4  1  0  0  0  0
  4  5  1  0  0  0  0
  5 11  1  0  0  0  0
  5  6  2  0  0  0  0
  6  7  1  0  0  0  0
  7  8  2  0  0  0  0
  7 14  1  0  0  0  0
  8  9  1  0  0  0  0
  9 10  2  0  0  0  0
  9 11  1  0  0  0  0
 11 12  1  0  0  0  0
 12 13  3  0  0  0  0
 14 15  1  0  0  0  0
 15 16  2  0  0  0  0
 15 17  1  0  0  0  0
 17 18  1  0  0  0  0
 18 29  2  0  0  0  0
 18 19  1  0  0  0  0
 19 20  1  0  0  0  0
 19 22  2  0  0  0  0
 20 21  1  0  0  0  0
 22 23  1  0  0  0  0
 23 24  1  0  0  0  0
 23 28  2  0  0  0  0
 24 25  2  0  0  0  0
 24 26  2  0  0  0  0
 24 27  1  0  0  0  0
 28 29  1  0  0  0  0
 28 30  1  0  0  0  0
 30 31  1  0  0  0  0
  1 32  1  0  0  0  0
  1 33  1  0  0  0  0
  1 34  1  0  0  0  0
  2 35  1  0  0  0  0
  3 36  1  0  0  0  0
  3 37  1  0  0  0  0
  3 38  1  0  0  0  0
  8 39  1  0  0  0  0
 10 40  1  0  0  0  0
 11 41  1  0  0  0  0
 14 42  1  0  0  0  0
 17 43  1  0  0  0  0
 17 44  1  0  0  0  0
 21 45  1  0  0  0  0
 21 46  1  0  0  0  0
 21 47  1  0  0  0  0
 22 48  1  0  0  0  0
 27 49  1  0  0  0  0
 27 50  1  0  0  0  0
 27 51  1  0  0  0  0
 29 52  1  0  0  0  0
 31 53  1  0  0  0  0
 31 54  1  0  0  0  0
 31 55  1  0  0  0  0
M  END
> <i_m_stars>
0

> <r_user_dG.exp>
-10.682977

$$$$
18652-1
  -OEChem-05162309453D
 Structure written by MMmdl.
 55 56  0     0  0  0  0  0  0999 V2000
   24.4145   10.2466   30.7179 C   0  0  0  0  0  0  0  0  0  0  0  0
   23.2191   11.0461   30.1836 C   0  0  0  0  0  0  0  0  0  0  0  0
   22.7154   10.5298   28.8282 C   0  0  0  0  0  0  0  0  0  0  0  0
   22.1815   11.2380   31.1572 O   0  0  0  0  0  0  0  0  0  0  0  0
   21.4027   10.2023   31.6505 C   0  0  0  0  0  0  0  0  0  0  0  0
   21.7305    8.9413   31.2769 N   0  0  0  0  0  0  0  0  0  0  0  0
   20.9695    7.9245   31.6884 C   0  0  0  0  0  0  0  0  0  0  0  0
   19.8692    8.0881   32.5165 C   0  0  0  0  0  0  0  0  0  0  0  0
   19.5323    9.3739   32.9065 C   0  0  0  0  0  0  0  0  0  0  0  0
   18.4017    9.4816   33.7079 N   0  0  0  0  0  0  0  0  0  0  0  0
   20.3042   10.4681   32.4772 C   0  0  0  0  0  0  0  0  0  0  0  0
   19.9961   11.8471   32.8385 C   0  0  0  0  0  0  0  0  0  0  0  0
   19.7584   12.9445   33.1218 N   0  0  0  0  0  0  0  0  0  0  0  0
   21.4458    6.7432   31.1644 N   0  0  0  0  0  0  0  0  0  0  0  0
   20.8524    5.5564   31.0443 C   0  0  0  0  0  0  0  0  0  0  0  0
   19.7091    5.3135   31.4219 O   0  0  0  0  0  0  0  0  0  0  0  0
   21.6443    4.4872   30.3016 C   0  0  0  0  0  0  0  0  0  0  0  0
   22.9984    4.1711   30.9304 C   0  0  0  0  0  0  0  0  0  0  0  0
   24.1219    4.9619   30.6449 C   0  0  0  0  0  0  0  0  0  0  0  0
   23.9394    6.0555   29.8171 O   0  0  0  0  0  0  0  0  0  0  0  0
   25.0655    6.8325   29.4151 C   0  0  0  0  0  0  0  0  0  0  0  0
   25.3547    4.6081   31.2081 C   0  0  0  0  0  0  0  0  0  0  0  0
   25.4606    3.5028   32.0584 C   0  0  0  0  0  0  0  0  0  0  0  0
   27.0696    3.0792   32.7393 S   0  0  0  0  0  0  0  0  0  0  0  0
   26.9129    2.7675   34.1691 O   0  0  0  0  0  0  0  0  0  0  0  0
   28.0400    4.1078   32.3298 O   0  0  0  0  0  0  0  0  0  0  0  0
   27.5188    1.5242   31.8684 C   0  0  0  0  0  0  0  0  0  0  0  0
   24.3410    2.7135   32.3514 C   0  0  0  0  0  0  0  0  0  0  0  0
   23.1128    3.0637   31.7753 C   0  0  0  0  0  0  0  0  0  0  0  0
   24.5003    1.6315   33.1956 O   0  0  0  0  0  0  0  0  0  0  0  0
   23.5378    0.5806   33.1826 C   0  0  0  0  0  0  0  0  0  0  0  0
   24.7297   10.6609   31.6869 H   0  0  0  0  0  0  0  0  0  0  0  0
   24.1232    9.1937   30.8467 H   0  0  0  0  0  0  0  0  0  0  0  0
   25.2479   10.3116   30.0029 H   0  0  0  0  0  0  0  0  0  0  0  0
   23.6219   12.0475   29.9715 H   0  0  0  0  0  0  0  0  0  0  0  0
   21.8615   11.1393   28.4974 H   0  0  0  0  0  0  0  0  0  0  0  0
   23.5244   10.5989   28.0861 H   0  0  0  0  0  0  0  0  0  0  0  0
   22.3996    9.4810   28.9298 H   0  0  0  0  0  0  0  0  0  0  0  0
   18.9992    7.6676   31.9908 H   0  0  0  0  0  0  0  0  0  0  0  0
   20.0600    7.5085   33.4317 H   0  0  0  0  0  0  0  0  0  0  0  0
   18.1997   10.4319   33.9450 H   0  0  0  0  0  0  0  0  0  0  0  0
   22.3839    6.7824   30.8202 H   0  0  0  0  0  0  0  0  0  0  0  0
   21.0469    3.5638   30.2837 H   0  0  0  0  0  0  0  0  0  0  0  0
   21.8135    4.8345   29.2717 H   0  0  0  0  0  0  0  0  0  0  0  0
   24.7314    7.6539   28.7642 H   0  0  0  0  0  0  0  0  0  0  0  0
   25.5605    7.2483   30.3051 H   0  0  0  0  0  0  0  0  0  0  0  0
   25.7738    6.1946   28.8661 H   0  0  0  0  0  0  0  0  0  0  0  0
   26.2329    5.1952   30.9833 H   0  0  0  0  0  0  0  0  0  0  0  0
   28.5019    1.1775   32.2196 H   0  0  0  0  0  0  0  0  0  0  0  0
   26.7619    0.7543   32.0791 H   0  0  0  0  0  0  0  0  0  0  0  0
   27.5611    1.7099   30.7850 H   0  0  0  0  0  0  0  0  0  0  0  0
   22.2382    2.4668   31.9881 H   0  0  0  0  0  0  0  0  0  0  0  0
   23.8253   -0.1897   33.9134 H   0  0  0  0  0  0  0  0  0  0  0  0
   22.5496    0.9854   33.4463 H   0  0  0  0  0  0  0  0  0  0  0  0
   23.4953    0.1349   32.1778 H   0  0  0  0  0  0  0  0  0  0  0  0
  1  2  1  0  0  0  0
  2  3  1  0  0  0  0
  2  4  1  0  0  0  0
  4  5  1  0  0  0  0
  5 11  2  0  0  0  0
  5  6  1  0  0  0  0
  6  7  2  0  0  0  0
  7  8  1  0  0  0  0
  7 14  1  0  0  0  0
  8  9  1  0  0  0  0
  9 10  2  0  0  0  0
  9 11  1  0  0  0  0
 11 12  1  0  0  0  0
 12 13  3  0  0  0  0
 14 15  1  0  0  0  0
 15 16  2  0  0  0  0
 15 17  1  0  0  0  0
 17 18  1  0  0  0  0
 18 29  2  0  0  0  0
 18 19  1  0  0  0  0
 19 20  1  0  0  0  0
 19 22  2  0  0  0  0
 20 21  1  0  0  0  0
 22 23  1  0  0  0  0
 23 24  1  0  0  0  0
 23 28  2  0  0  0  0
 24 25  2  0  0  0  0
 24 26  2  0  0  0  0
 24 27  1  0  0  0  0
 28 29  1  0  0  0  0
 28 30  1  0  0  0  0
 30 31  1  0  0  0  0
  1 32  1  0  0  0  0
  1 33  1  0  0  0  0
  1 34  1  0  0  0  0
  2 35  1  0  0  0  0
  3 36  1  0  0  0  0
  3 37  1  0  0  0  0
  3 38  1  0  0  0  0
  8 39  1  0  0  0  0
  8 40  1  0  0  0  0
 10 41  1  0  0  0  0
 14 42  1  0  0  0  0
 17 43  1  0  0  0  0
 17 44  1  0  0  0  0
 21 45  1  0  0  0  0
 21 46  1  0  0  0  0
 21 47  1  0  0  0  0
 22 48  1  0  0  0  0
 27 49  1  0  0  0  0
 27 50  1  0  0  0  0
 27 51  1  0  0  0  0
 29 52  1  0  0  0  0
 31 53  1  0  0  0  0
 31 54  1  0  0  0  0
 31 55  1  0  0  0  0
M  END
> <i_m_stars>
0

> <r_user_dG.exp>
-10.682977

$$$$
18652-1
  -OEChem-05162309453D
 Structure written by MMmdl.
 55 56  0     1  0  0  0  0  0999 V2000
   24.4145   10.2466   30.7179 C   0  0  0  0  0  0  0  0  0  0  0  0
   23.2191   11.0461   30.1836 C   0  0  0  0  0  0  0  0  0  0  0  0
   22.7154   10.5298   28.8282 C   0  0  0  0  0  0  0  0  0  0  0  0
   22.1815   11.2380   31.1572 O   0  0  0  0  0  0  0  0  0  0  0  0
   21.4027   10.2023   31.6505 C   0  0  0  0  0  0  0  0  0  0  0  0
   21.7305    8.9413   31.2769 N   0  0  0  0  0  0  0  0  0  0  0  0
   20.9695    7.9245   31.6884 C   0  0  0  0  0  0  0  0  0  0  0  0
   19.8692    8.0881   32.5165 C   0  0  0  0  0  0  0  0  0  0  0  0
   19.5323    9.3739   32.9065 C   0  0  0  0  0  0  0  0  0  0  0  0
   18.4017    9.4816   33.7079 N   0  0  0  0  0  0  0  0  0  0  0  0
   20.3042   10.4681   32.4772 C   0  0  3  0  0  0  0  0  0  0  0  0
   19.9961   11.8471   32.8385 C   0  0  0  0  0  0  0  0  0  0  0  0
   19.7584   12.9445   33.1218 N   0  0  0  0  0  0  0  0  0  0  0  0
   21.4458    6.7432   31.1644 N   0  0  0  0  0  0  0  0  0  0  0  0
   20.8524    5.5564   31.0443 C   0  0  0  0  0  0  0  0  0  0  0  0
   19.7091    5.3135   31.4219 O   0  0  0  0  0  0  0  0  0  0  0  0
   21.6443    4.4872   30.3016 C   0  0  0  0  0  0  0  0  0  0  0  0
   22.9984    4.1711   30.9304 C   0  0  0  0  0  0  0  0  0  0  0  0
   24.1219    4.9619   30.6449 C   0  0  0  0  0  0  0  0  0  0  0  0
   23.9394    6.0555   29.8171 O   0  0  0  0  0  0  0  0  0  0  0  0
   25.0655    6.8325   29.4151 C   0  0  0  0  0  0  0  0  0  0  0  0
   25.3547    4.6081   31.2081 C   0  0  0  0  0  0  0  0  0  0  0  0
   25.4606    3.5028   32.0584 C   0  0  0  0  0  0  0  0  0  0  0  0
   27.0696    3.0792   32.7393 S   0  0  0  0  0  0  0  0  0  0  0  0
   26.9129    2.7675   34.1691 O   0  0  0  0  0  0  0  0  0  0  0  0
   28.0400    4.1078   32.3298 O   0  0  0  0  0  0  0  0  0  0  0  0
   27.5188    1.5242   31.8684 C   0  0  0  0  0  0  0  0  0  0  0  0
   24.3410    2.7135   32.3514 C   0  0  0  0  0  0  0  0  0  0  0  0
   23.1128    3.0637   31.7753 C   0  0  0  0  0  0  0  0  0  0  0  0
   24.5003    1.6315   33.1956 O   0  0  0  0  0  0  0  0  0  0  0  0
   23.5378    0.5806   33.1826 C   0  0  0  0  0  0  0  0  0  0  0  0
   24.7297   10.6609   31.6869 H   0  0  0  0  0  0  0  0  0  0  0  0
   24.1232    9.1937   30.8467 H   0  0  0  0  0  0  0  0  0  0  0  0
   25.2479   10.3116   30.0029 H   0  0  0  0  0  0  0  0  0  0  0  0
   23.6219   12.0475   29.9715 H   0  0  0  0  0  0  0  0  0  0  0  0
   21.8615   11.1393   28.4974 H   0  0  0  0  0  0  0  0  0  0  0  0
   23.5244   10.5989   28.0861 H   0  0  0  0  0  0  0  0  0  0  0  0
   22.3996    9.4810   28.9298 H   0  0  0  0  0  0  0  0  0  0  0  0
   19.2917    7.2377   32.8477 H   0  0  0  0  0  0  0  0  0  0  0  0
   18.2433   10.4427   33.9343 H   0  0  0  0  0  0  0  0  0  0  0  0
   17.6093    9.1200   33.2166 H   0  0  0  0  0  0  0  0  0  0  0  0
   20.9440   10.3726   33.3669 H   0  0  0  0  0  0  0  0  0  0  0  0
   21.0469    3.5638   30.2837 H   0  0  0  0  0  0  0  0  0  0  0  0
   21.8135    4.8345   29.2717 H   0  0  0  0  0  0  0  0  0  0  0  0
   24.7314    7.6539   28.7642 H   0  0  0  0  0  0  0  0  0  0  0  0
   25.5605    7.2483   30.3051 H   0  0  0  0  0  0  0  0  0  0  0  0
   25.7738    6.1946   28.8661 H   0  0  0  0  0  0  0  0  0  0  0  0
   26.2329    5.1952   30.9833 H   0  0  0  0  0  0  0  0  0  0  0  0
   28.5019    1.1775   32.2196 H   0  0  0  0  0  0  0  0  0  0  0  0
   26.7619    0.7543   32.0791 H   0  0  0  0  0  0  0  0  0  0  0  0
   27.5611    1.7099   30.7850 H   0  0  0  0  0  0  0  0  0  0  0  0
   22.2382    2.4668   31.9881 H   0  0  0  0  0  0  0  0  0  0  0  0
   23.8253   -0.1897   33.9134 H   0  0  0  0  0  0  0  0  0  0  0  0
   22.5496    0.9854   33.4463 H   0  0  0  0  0  0  0  0  0  0  0  0
   23.4953    0.1349   32.1778 H   0  0  0  0  0  0  0  0  0  0  0  0
  1  2  1  0  0  0  0
  2  3  1  0  0  0  0
  2  4  1  0  0  0  0
  4  5  1  0  0  0  0
  5 11  1  0  0  0  0
  5  6  2  0  0  0  0
  6  7  1  0  0  0  0
  7  8  1  0  0  0  0
  7 14  2  0  0  0  0
  8  9  2  0  0  0  0
  9 10  1  0  0  0  0
  9 11  1  0  0  0  0
 11 12  1  0  0  0  0
 12 13  3  0  0  0  0
 14 15  1  0  0  0  0
 15 16  2  0  0  0  0
 15 17  1  0  0  0  0
 17 18  1  0  0  0  0
 18 29  2  0  0  0  0
 18 19  1  0  0  0  0
 19 20  1  0  0  0  0
 19 22  2  0  0  0  0
 20 21  1  0  0  0  0
 22 23  1  0  0  0  0
 23 24  1  0  0  0  0
 23 28  2  0  0  0  0
 24 25  2  0  0  0  0
 24 26  2  0  0  0  0
 24 27  1  0  0  0  0
 28 29  1  0  0  0  0
 28 30  1  0  0  0  0
 30 31  1  0  0  0  0
  1 32  1  0  0  0  0
  1 33  1  0  0  0  0
  1 34  1  0  0  0  0
  2 35  1  0  0  0  0
  3 36  1  0  0  0  0
  3 37  1  0  0  0  0
  3 38  1  0  0  0  0
  8 39  1  0  0  0  0
 10 40  1  0  0  0  0
 10 41  1  0  0  0  0
 11 42  1  0  0  0  0
 17 43  1  0  0  0  0
 17 44  1  0  0  0  0
 21 45  1  0  0  0  0
 21 46  1  0  0  0  0
 21 47  1  0  0  0  0
 22 48  1  0  0  0  0
 27 49  1  0  0  0  0
 27 50  1  0  0  0  0
 27 51  1  0  0  0  0
 29 52  1  0  0  0  0
 31 53  1  0  0  0  0
 31 54  1  0  0  0  0
 31 55  1  0  0  0  0
M  END
> <i_m_stars>
0

> <r_user_dG.exp>
-10.682977

$$$$
18652-1
  -OEChem-05162309453D
 Structure written by MMmdl.
 55 56  0     0  0  0  0  0  0999 V2000
   24.4145   10.2466   30.7179 C   0  0  0  0  0  0  0  0  0  0  0  0
   23.2191   11.0461   30.1836 C   0  0  0  0  0  0  0  0  0  0  0  0
   22.7154   10.5298   28.8282 C   0  0  0  0  0  0  0  0  0  0  0  0
   22.1815   11.2380   31.1572 O   0  0  0  0  0  0  0  0  0  0  0  0
   21.4027   10.2023   31.6505 C   0  0  0  0  0  0  0  0  0  0  0  0
   21.7305    8.9413   31.2769 N   0  0  0  0  0  0  0  0  0  0  0  0
   20.9695    7.9245   31.6884 C   0  0  0  0  0  0  0  0  0  0  0  0
   19.8692    8.0881   32.5165 C   0  0  0  0  0  0  0  0  0  0  0  0
   19.5323    9.3739   32.9065 C   0  0  0  0  0  0  0  0  0  0  0  0
   18.4017    9.4816   33.7079 N   0  0  0  0  0  0  0  0  0  0  0  0
   20.3042   10.4681   32.4772 C   0  0  0  0  0  0  0  0  0  0  0  0
   19.9961   11.8471   32.8385 C   0  0  0  0  0  0  0  0  0  0  0  0
   19.7584   12.9445   33.1218 N   0  0  0  0  0  0  0  0  0  0  0  0
   21.4458    6.7432   31.1644 N   0  0  0  0  0  0  0  0  0  0  0  0
   20.8524    5.5564   31.0443 C   0  0  0  0  0  0  0  0  0  0  0  0
   19.7091    5.3135   31.4219 O   0  0  0  0  0  0  0  0  0  0  0  0
   21.6443    4.4872   30.3016 C   0  0  0  0  0  0  0  0  0  0  0  0
   22.9984    4.1711   30.9304 C   0  0  0  0  0  0  0  0  0  0  0  0
   24.1219    4.9619   30.6449 C   0  0  0  0  0  0  0  0  0  0  0  0
   23.9394    6.0555   29.8171 O   0  0  0  0  0  0  0  0  0  0  0  0
   25.0655    6.8325   29.4151 C   0  0  0  0  0  0  0  0  0  0  0  0
   25.3547    4.6081   31.2081 C   0  0  0  0  0  0  0  0  0  0  0  0
   25.4606    3.5028   32.0584 C   0  0  0  0  0  0  0  0  0  0  0  0
   27.0696    3.0792   32.7393 S   0  0  0  0  0  0  0  0  0  0  0  0
   26.9129    2.7675   34.1691 O   0  0  0  0  0  0  0  0  0  0  0  0
   28.0400    4.1078   32.3298 O   0  0  0  0  0  0  0  0  0  0  0  0
   27.5188    1.5242   31.8684 C   0  0  0  0  0  0  0  0  0  0  0  0
   24.3410    2.7135   32.3514 C   0  0  0  0  0  0  0  0  0  0  0  0
   23.1128    3.0637   31.7753 C   0  0  0  0  0  0  0  0  0  0  0  0
   24.5003    1.6315   33.1956 O   0  0  0  0  0  0  0  0  0  0  0  0
   23.5378    0.5806   33.1826 C   0  0  0  0  0  0  0  0  0  0  0  0
   24.7297   10.6609   31.6869 H   0  0  0  0  0  0  0  0  0  0  0  0
   24.1232    9.1937   30.8467 H   0  0  0  0  0  0  0  0  0  0  0  0
   25.2479   10.3116   30.0029 H   0  0  0  0  0  0  0  0  0  0  0  0
   23.6219   12.0475   29.9715 H   0  0  0  0  0  0  0  0  0  0  0  0
   21.8615   11.1393   28.4974 H   0  0  0  0  0  0  0  0  0  0  0  0
   23.5244   10.5989   28.0861 H   0  0  0  0  0  0  0  0  0  0  0  0
   22.3996    9.4810   28.9298 H   0  0  0  0  0  0  0  0  0  0  0  0
   18.9992    7.6676   31.9908 H   0  0  0  0  0  0  0  0  0  0  0  0
   20.0600    7.5085   33.4317 H   0  0  0  0  0  0  0  0  0  0  0  0
   18.2433   10.4427   33.9343 H   0  0  0  0  0  0  0  0  0  0  0  0
   17.6093    9.1200   33.2166 H   0  0  0  0  0  0  0  0  0  0  0  0
   21.0469    3.5638   30.2837 H   0  0  0  0  0  0  0  0  0  0  0  0
   21.8135    4.8345   29.2717 H   0  0  0  0  0  0  0  0  0  0  0  0
   24.7314    7.6539   28.7642 H   0  0  0  0  0  0  0  0  0  0  0  0
   25.5605    7.2483   30.3051 H   0  0  0  0  0  0  0  0  0  0  0  0
   25.7738    6.1946   28.8661 H   0  0  0  0  0  0  0  0  0  0  0  0
   26.2329    5.1952   30.9833 H   0  0  0  0  0  0  0  0  0  0  0  0
   28.5019    1.1775   32.2196 H   0  0  0  0  0  0  0  0  0  0  0  0
   26.7619    0.7543   32.0791 H   0  0  0  0  0  0  0  0  0  0  0  0
   27.5611    1.7099   30.7850 H   0  0  0  0  0  0  0  0  0  0  0  0
   22.2382    2.4668   31.9881 H   0  0  0  0  0  0  0  0  0  0  0  0
   23.8253   -0.1897   33.9134 H   0  0  0  0  0  0  0  0  0  0  0  0
   22.5496    0.9854   33.4463 H   0  0  0  0  0  0  0  0  0  0  0  0
   23.4953    0.1349   32.1778 H   0  0  0  0  0  0  0  0  0  0  0  0
  1  2  1  0  0  0  0
  2  3  1  0  0  0  0
  2  4  1  0  0  0  0
  4  5  1  0  0  0  0
  5 11  1  0  0  0  0
  5  6  2  0  0  0  0
  6  7  1  0  0  0  0
  7  8  1  0  0  0  0
  7 14  2  0  0  0  0
  8  9  1  0  0  0  0
  9 10  1  0  0  0  0
  9 11  2  0  0  0  0
 11 12  1  0  0  0  0
 12 13  3  0  0  0  0
 14 15  1  0  0  0  0
 15 16  2  0  0  0  0
 15 17  1  0  0  0  0
 17 18  1  0  0  0  0
 18 29  2  0  0  0  0
 18 19  1  0  0  0  0
 19 20  1  0  0  0  0
 19 22  2  0  0  0  0
 20 21  1  0  0  0  0
 22 23  1  0  0  0  0
 23 24  1  0  0  0  0
 23 28  2  0  0  0  0
 24 25  2  0  0  0  0
 24 26  2  0  0  0  0
 24 27  1  0  0  0  0
 28 29  1  0  0  0  0
 28 30  1  0  0  0  0
 30 31  1  0  0  0  0
  1 32  1  0  0  0  0
  1 33  1  0  0  0  0
  1 34  1  0  0  0  0
  2 35  1  0  0  0  0
  3 36  1  0  0  0  0
  3 37  1  0  0  0  0
  3 38  1  0  0  0  0
  8 39  1  0  0  0  0
  8 40  1  0  0  0  0
 10 41  1  0  0  0  0
 10 42  1  0  0  0  0
 17 43  1  0  0  0  0
 17 44  1  0  0  0  0
 21 45  1  0  0  0  0
 21 46  1  0  0  0  0
 21 47  1  0  0  0  0
 22 48  1  0  0  0  0
 27 49  1  0  0  0  0
 27 50  1  0  0  0  0
 27 51  1  0  0  0  0
 29 52  1  0  0  0  0
 31 53  1  0  0  0  0
 31 54  1  0  0  0  0
 31 55  1  0  0  0  0
M  END
> <i_m_stars>
0

> <r_user_dG.exp>
-10.682977

$$$$
18652-1
  -OEChem-05162309453D
 Structure written by MMmdl.
 55 56  0     0  0  0  0  0  0999 V2000
   24.4145   10.2466   30.7179 C   0  0  0  0  0  0  0  0  0  0  0  0
   23.2191   11.0461   30.1836 C   0  0  0  0  0  0  0  0  0  0  0  0
   22.7154   10.5298   28.8282 C   0  0  0  0  0  0  0  0  0  0  0  0
   22.1815   11.2380   31.1572 O   0  0  0  0  0  0  0  0  0  0  0  0
   21.4027   10.2023   31.6505 C   0  0  0  0  0  0  0  0  0  0  0  0
   21.7305    8.9413   31.2769 N   0  0  0  0  0  0  0  0  0  0  0  0
   20.9695    7.9245   31.6884 C   0  0  0  0  0  0  0  0  0  0  0  0
   19.8692    8.0881   32.5165 C   0  0  0  0  0  0  0  0  0  0  0  0
   19.5323    9.3739   32.9065 C   0  0  0  0  0  0  0  0  0  0  0  0
   18.4017    9.4816   33.7079 N   0  0  0  0  0  0  0  0  0  0  0  0
   20.3042   10.4681   32.4772 C   0  0  0  0  0  0  0  0  0  0  0  0
   19.9961   11.8471   32.8385 C   0  0  0  0  0  0  0  0  0  0  0  0
   19.7584   12.9445   33.1218 N   0  0  0  0  0  0  0  0  0  0  0  0
   21.4458    6.7432   31.1644 N   0  0  0  0  0  0  0  0  0  0  0  0
   20.8524    5.5564   31.0443 C   0  0  0  0  0  0  0  0  0  0  0  0
   19.7091    5.3135   31.4219 O   0  0  0  0  0  0  0  0  0  0  0  0
   21.6443    4.4872   30.3016 C   0  0  0  0  0  0  0  0  0  0  0  0
   22.9984    4.1711   30.9304 C   0  0  0  0  0  0  0  0  0  0  0  0
   24.1219    4.9619   30.6449 C   0  0  0  0  0  0  0  0  0  0  0  0
   23.9394    6.0555   29.8171 O   0  0  0  0  0  0  0  0  0  0  0  0
   25.0655    6.8325   29.4151 C   0  0  0  0  0  0  0  0  0  0  0  0
   25.3547    4.6081   31.2081 C   0  0  0  0  0  0  0  0  0  0  0  0
   25.4606    3.5028   32.0584 C   0  0  0  0  0  0  0  0  0  0  0  0
   27.0696    3.0792   32.7393 S   0  0  0  0  0  0  0  0  0  0  0  0
   26.9129    2.7675   34.1691 O   0  0  0  0  0  0  0  0  0  0  0  0
   28.0400    4.1078   32.3298 O   0  0  0  0  0  0  0  0  0  0  0  0
   27.5188    1.5242   31.8684 C   0  0  0  0  0  0  0  0  0  0  0  0
   24.3410    2.7135   32.3514 C   0  0  0  0  0  0  0  0  0  0  0  0
   23.1128    3.0637   31.7753 C   0  0  0  0  0  0  0  0  0  0  0  0
   24.5003    1.6315   33.1956 O   0  0  0  0  0  0  0  0  0  0  0  0
   23.5378    0.5806   33.1826 C   0  0  0  0  0  0  0  0  0  0  0  0
   24.7297   10.6609   31.6869 H   0  0  0  0  0  0  0  0  0  0  0  0
   24.1232    9.1937   30.8467 H   0  0  0  0  0  0  0  0  0  0  0  0
   25.2479   10.3116   30.0029 H   0  0  0  0  0  0  0  0  0  0  0  0
   23.6219   12.0475   29.9715 H   0  0  0  0  0  0  0  0  0  0  0  0
   21.8615   11.1393   28.4974 H   0  0  0  0  0  0  0  0  0  0  0  0
   23.5244   10.5989   28.0861 H   0  0  0  0  0  0  0  0  0  0  0  0
   22.3996    9.4810   28.9298 H   0  0  0  0  0  0  0  0  0  0  0  0
   22.5310    8.7749   30.7012 H   0  0  0  0  0  0  0  0  0  0  0  0
   18.9992    7.6676   31.9908 H   0  0  0  0  0  0  0  0  0  0  0  0
   20.0600    7.5085   33.4317 H   0  0  0  0  0  0  0  0  0  0  0  0
   18.1997   10.4319   33.9450 H   0  0  0  0  0  0  0  0  0  0  0  0
   21.0469    3.5638   30.2837 H   0  0  0  0  0  0  0  0  0  0  0  0
   21.8135    4.8345   29.2717 H   0  0  0  0  0  0  0  0  0  0  0  0
   24.7314    7.6539   28.7642 H   0  0  0  0  0  0  0  0  0  0  0  0
   25.5605    7.2483   30.3051 H   0  0  0  0  0  0  0  0  0  0  0  0
   25.7738    6.1946   28.8661 H   0  0  0  0  0  0  0  0  0  0  0  0
   26.2329    5.1952   30.9833 H   0  0  0  0  0  0  0  0  0  0  0  0
   28.5019    1.1775   32.2196 H   0  0  0  0  0  0  0  0  0  0  0  0
   26.7619    0.7543   32.0791 H   0  0  0  0  0  0  0  0  0  0  0  0
   27.5611    1.7099   30.7850 H   0  0  0  0  0  0  0  0  0  0  0  0
   22.2382    2.4668   31.9881 H   0  0  0  0  0  0  0  0  0  0  0  0
   23.8253   -0.1897   33.9134 H   0  0  0  0  0  0  0  0  0  0  0  0
   22.5496    0.9854   33.4463 H   0  0  0  0  0  0  0  0  0  0  0  0
   23.4953    0.1349   32.1778 H   0  0  0  0  0  0  0  0  0  0  0  0
  1  2  1  0  0  0  0
  2  3  1  0  0  0  0
  2  4  1  0  0  0  0
  4  5  1  0  0  0  0
  5 11  2  0  0  0  0
  5  6  1  0  0  0  0
  6  7  1  0  0  0  0
  7  8  1  0  0  0  0
  7 14  2  0  0  0  0
  8  9  1  0  0  0  0
  9 10  2  0  0  0  0
  9 11  1  0  0  0  0
 11 12  1  0  0  0  0
 12 13  3  0  0  0  0
 14 15  1  0  0  0  0
 15 16  2  0  0  0  0
 15 17  1  0  0  0  0
 17 18  1  0  0  0  0
 18 29  2  0  0  0  0
 18 19  1  0  0  0  0
 19 20  1  0  0  0  0
 19 22  2  0  0  0  0
 20 21  1  0  0  0  0
 22 23  1  0  0  0  0
 23 24  1  0  0  0  0
 23 28  2  0  0  0  0
 24 25  2  0  0  0  0
 24 26  2  0  0  0  0
 24 27  1  0  0  0  0
 28 29  1  0  0  0  0
 28 30  1  0  0  0  0
 30 31  1  0  0  0  0
  1 32  1  0  0  0  0
  1 33  1  0  0  0  0
  1 34  1  0  0  0  0
  2 35  1  0  0  0  0
  3 36  1  0  0  0  0
  3 37  1  0  0  0  0
  3 38  1  0  0  0  0
  6 39  1  0  0  0  0
  8 40  1  0  0  0  0
  8 41  1  0  0  0  0
 10 42  1  0  0  0  0
 17 43  1  0  0  0  0
 17 44  1  0  0  0  0
 21 45  1  0  0  0  0
 21 46  1  0  0  0  0
 21 47  1  0  0  0  0
 22 48  1  0  0  0  0
 27 49  1  0  0  0  0
 27 50  1  0  0  0  0
 27 51  1  0  0  0  0
 29 52  1  0  0  0  0
 31 53  1  0  0  0  0
 31 54  1  0  0  0  0
 31 55  1  0  0  0  0
M  END
> <i_m_stars>
0

> <r_user_dG.exp>
-10.682977

$$$$
18652-1
  -OEChem-05162309453D
 Structure written by MMmdl.
 55 56  0     1  0  0  0  0  0999 V2000
   24.4145   10.2466   30.7179 C   0  0  0  0  0  0  0  0  0  0  0  0
   23.2191   11.0461   30.1836 C   0  0  0  0  0  0  0  0  0  0  0  0
   22.7154   10.5298   28.8282 C   0  0  0  0  0  0  0  0  0  0  0  0
   22.1815   11.2380   31.1572 O   0  0  0  0  0  0  0  0  0  0  0  0
   21.4027   10.2023   31.6505 C   0  0  0  0  0  0  0  0  0  0  0  0
   21.7305    8.9413   31.2769 N   0  0  0  0  0  0  0  0  0  0  0  0
   20.9695    7.9245   31.6884 C   0  0  0  0  0  0  0  0  0  0  0  0
   19.8692    8.0881   32.5165 C   0  0  0  0  0  0  0  0  0  0  0  0
   19.5323    9.3739   32.9065 C   0  0  0  0  0  0  0  0  0  0  0  0
   18.4017    9.4816   33.7079 N   0  0  0  0  0  0  0  0  0  0  0  0
   20.3042   10.4681   32.4772 C   0  0  3  0  0  0  0  0  0  0  0  0
   19.9961   11.8471   32.8385 C   0  0  0  0  0  0  0  0  0  0  0  0
   19.7584   12.9445   33.1218 N   0  0  0  0  0  0  0  0  0  0  0  0
   21.4458    6.7432   31.1644 N   0  0  0  0  0  0  0  0  0  0  0  0
   20.8524    5.5564   31.0443 C   0  0  0  0  0  0  0  0  0  0  0  0
   19.7091    5.3135   31.4219 O   0  0  0  0  0  0  0  0  0  0  0  0
   21.6443    4.4872   30.3016 C   0  0  0  0  0  0  0  0  0  0  0  0
   22.9984    4.1711   30.9304 C   0  0  0  0  0  0  0  0  0  0  0  0
   24.1219    4.9619   30.6449 C   0  0  0  0  0  0  0  0  0  0  0  0
   23.9394    6.0555   29.8171 O   0  0  0  0  0  0  0  0  0  0  0  0
   25.0655    6.8325   29.4151 C   0  0  0  0  0  0  0  0  0  0  0  0
   25.3547    4.6081   31.2081 C   0  0  0  0  0  0  0  0  0  0  0  0
   25.4606    3.5028   32.0584 C   0  0  0  0  0  0  0  0  0  0  0  0
   27.0696    3.0792   32.7393 S   0  0  0  0  0  0  0  0  0  0  0  0
   26.9129    2.7675   34.1691 O   0  0  0  0  0  0  0  0  0  0  0  0
   28.0400    4.1078   32.3298 O   0  0  0  0  0  0  0  0  0  0  0  0
   27.5188    1.5242   31.8684 C   0  0  0  0  0  0  0  0  0  0  0  0
   24.3410    2.7135   32.3514 C   0  0  0  0  0  0  0  0  0  0  0  0
   23.1128    3.0637   31.7753 C   0  0  0  0  0  0  0  0  0  0  0  0
   24.5003    1.6315   33.1956 O   0  0  0  0  0  0  0  0  0  0  0  0
   23.5378    0.5806   33.1826 C   0  0  0  0  0  0  0  0  0  0  0  0
   24.7297   10.6609   31.6869 H   0  0  0  0  0  0  0  0  0  0  0  0
   24.1232    9.1937   30.8467 H   0  0  0  0  0  0  0  0  0  0  0  0
   25.2479   10.3116   30.0029 H   0  0  0  0  0  0  0  0  0  0  0  0
   23.6219   12.0475   29.9715 H   0  0  0  0  0  0  0  0  0  0  0  0
   21.8615   11.1393   28.4974 H   0  0  0  0  0  0  0  0  0  0  0  0
   23.5244   10.5989   28.0861 H   0  0  0  0  0  0  0  0  0  0  0  0
   22.3996    9.4810   28.9298 H   0  0  0  0  0  0  0  0  0  0  0  0
   19.2917    7.2377   32.8477 H   0  0  0  0  0  0  0  0  0  0  0  0
   18.1997   10.4319   33.9450 H   0  0  0  0  0  0  0  0  0  0  0  0
   20.9440   10.3726   33.3669 H   0  0  0  0  0  0  0  0  0  0  0  0
   19.4992    4.4062   31.2342 H   0  0  0  0  0  0  0  0  0  0  0  0
   21.0469    3.5638   30.2837 H   0  0  0  0  0  0  0  0  0  0  0  0
   21.8135    4.8345   29.2717 H   0  0  0  0  0  0  0  0  0  0  0  0
   24.7314    7.6539   28.7642 H   0  0  0  0  0  0  0  0  0  0  0  0
   25.5605    7.2483   30.3051 H   0  0  0  0  0  0  0  0  0  0  0  0
   25.7738    6.1946   28.8661 H   0  0  0  0  0  0  0  0  0  0  0  0
   26.2329    5.1952   30.9833 H   0  0  0  0  0  0  0  0  0  0  0  0
   28.5019    1.1775   32.2196 H   0  0  0  0  0  0  0  0  0  0  0  0
   26.7619    0.7543   32.0791 H   0  0  0  0  0  0  0  0  0  0  0  0
   27.5611    1.7099   30.7850 H   0  0  0  0  0  0  0  0  0  0  0  0
   22.2382    2.4668   31.9881 H   0  0  0  0  0  0  0  0  0  0  0  0
   23.8253   -0.1897   33.9134 H   0  0  0  0  0  0  0  0  0  0  0  0
   22.5496    0.9854   33.4463 H   0  0  0  0  0  0  0  0  0  0  0  0
   23.4953    0.1349   32.1778 H   0  0  0  0  0  0  0  0  0  0  0  0
  1  2  1  0  0  0  0
  2  3  1  0  0  0  0
  2  4  1  0  0  0  0
  4  5  1  0  0  0  0
  5 11  1  0  0  0  0
  5  6  2  0  0  0  0
  6  7  1  0  0  0  0
  7  8  2  0  0  0  0
  7 14  1  0  0  0  0
  8  9  1  0  0  0  0
  9 10  2  0  0  0  0
  9 11  1  0  0  0  0
 11 12  1  0  0  0  0
 12 13  3  0  0  0  0
 14 15  2  0  0  0  0
 15 16  1  0  0  0  0
 15 17  1  0  0  0  0
 17 18  1  0  0  0  0
 18 29  2  0  0  0  0
 18 19  1  0  0  0  0
 19 20  1  0  0  0  0
 19 22  2  0  0  0  0
 20 21  1  0  0  0  0
 22 23  1  0  0  0  0
 23 24  1  0  0  0  0
 23 28  2  0  0  0  0
 24 25  2  0  0  0  0
 24 26  2  0  0  0  0
 24 27  1  0  0  0  0
 28 29  1  0  0  0  0
 28 30  1  0  0  0  0
 30 31  1  0  0  0  0
  1 32  1  0  0  0  0
  1 33  1  0  0  0  0
  1 34  1  0  0  0  0
  2 35  1  0  0  0  0
  3 36  1  0  0  0  0
  3 37  1  0  0  0  0
  3 38  1  0  0  0  0
  8 39  1  0  0  0  0
 10 40  1  0  0  0  0
 11 41  1  0  0  0  0
 16 42  1  0  0  0  0
 17 43  1  0  0  0  0
 17 44  1  0  0  0  0
 21 45  1  0  0  0  0
 21 46  1  0  0  0  0
 21 47  1  0  0  0  0
 22 48  1  0  0  0  0
 27 49  1  0  0  0  0
 27 50  1  0  0  0  0
 27 51  1  0  0  0  0
 29 52  1  0  0  0  0
 31 53  1  0  0  0  0
 31 54  1  0  0  0  0
 31 55  1  0  0  0  0
M  END
> <i_m_stars>
0

> <r_user_dG.exp>
-10.682977

$$$$
18652-1
  -OEChem-05162309453D
 Structure written by MMmdl.
 55 56  0     0  0  0  0  0  0999 V2000
   24.4145   10.2466   30.7179 C   0  0  0  0  0  0  0  0  0  0  0  0
   23.2191   11.0461   30.1836 C   0  0  0  0  0  0  0  0  0  0  0  0
   22.7154   10.5298   28.8282 C   0  0  0  0  0  0  0  0  0  0  0  0
   22.1815   11.2380   31.1572 O   0  0  0  0  0  0  0  0  0  0  0  0
   21.4027   10.2023   31.6505 C   0  0  0  0  0  0  0  0  0  0  0  0
   21.7305    8.9413   31.2769 N   0  0  0  0  0  0  0  0  0  0  0  0
   20.9695    7.9245   31.6884 C   0  0  0  0  0  0  0  0  0  0  0  0
   19.8692    8.0881   32.5165 C   0  0  0  0  0  0  0  0  0  0  0  0
   19.5323    9.3739   32.9065 C   0  0  0  0  0  0  0  0  0  0  0  0
   18.4017    9.4816   33.7079 N   0  0  0  0  0  0  0  0  0  0  0  0
   20.3042   10.4681   32.4772 C   0  0  0  0  0  0  0  0  0  0  0  0
   19.9961   11.8471   32.8385 C   0  0  0  0  0  0  0  0  0  0  0  0
   19.7584   12.9445   33.1218 N   0  0  0  0  0  0  0  0  0  0  0  0
   21.4458    6.7432   31.1644 N   0  0  0  0  0  0  0  0  0  0  0  0
   20.8524    5.5564   31.0443 C   0  0  0  0  0  0  0  0  0  0  0  0
   19.7091    5.3135   31.4219 O   0  0  0  0  0  0  0  0  0  0  0  0
   21.6443    4.4872   30.3016 C   0  0  0  0  0  0  0  0  0  0  0  0
   22.9984    4.1711   30.9304 C   0  0  0  0  0  0  0  0  0  0  0  0
   24.1219    4.9619   30.6449 C   0  0  0  0  0  0  0  0  0  0  0  0
   23.9394    6.0555   29.8171 O   0  0  0  0  0  0  0  0  0  0  0  0
   25.0655    6.8325   29.4151 C   0  0  0  0  0  0  0  0  0  0  0  0
   25.3547    4.6081   31.2081 C   0  0  0  0  0  0  0  0  0  0  0  0
   25.4606    3.5028   32.0584 C   0  0  0  0  0  0  0  0  0  0  0  0
   27.0696    3.0792   32.7393 S   0  0  0  0  0  0  0  0  0  0  0  0
   26.9129    2.7675   34.1691 O   0  0  0  0  0  0  0  0  0  0  0  0
   28.0400    4.1078   32.3298 O   0  0  0  0  0  0  0  0  0  0  0  0
   27.5188    1.5242   31.8684 C   0  0  0  0  0  0  0  0  0  0  0  0
   24.3410    2.7135   32.3514 C   0  0  0  0  0  0  0  0  0  0  0  0
   23.1128    3.0637   31.7753 C   0  0  0  0  0  0  0  0  0  0  0  0
   24.5003    1.6315   33.1956 O   0  0  0  0  0  0  0  0  0  0  0  0
   23.5378    0.5806   33.1826 C   0  0  0  0  0  0  0  0  0  0  0  0
   24.7297   10.6609   31.6869 H   0  0  0  0  0  0  0  0  0  0  0  0
   24.1232    9.1937   30.8467 H   0  0  0  0  0  0  0  0  0  0  0  0
   25.2479   10.3116   30.0029 H   0  0  0  0  0  0  0  0  0  0  0  0
   23.6219   12.0475   29.9715 H   0  0  0  0  0  0  0  0  0  0  0  0
   21.8615   11.1393   28.4974 H   0  0  0  0  0  0  0  0  0  0  0  0
   23.5244   10.5989   28.0861 H   0  0  0  0  0  0  0  0  0  0  0  0
   22.3996    9.4810   28.9298 H   0  0  0  0  0  0  0  0  0  0  0  0
   18.9992    7.6676   31.9908 H   0  0  0  0  0  0  0  0  0  0  0  0
   20.0600    7.5085   33.4317 H   0  0  0  0  0  0  0  0  0  0  0  0
   18.1997   10.4319   33.9450 H   0  0  0  0  0  0  0  0  0  0  0  0
   19.4992    4.4062   31.2342 H   0  0  0  0  0  0  0  0  0  0  0  0
   21.0469    3.5638   30.2837 H   0  0  0  0  0  0  0  0  0  0  0  0
   21.8135    4.8345   29.2717 H   0  0  0  0  0  0  0  0  0  0  0  0
   24.7314    7.6539   28.7642 H   0  0  0  0  0  0  0  0  0  0  0  0
   25.5605    7.2483   30.3051 H   0  0  0  0  0  0  0  0  0  0  0  0
   25.7738    6.1946   28.8661 H   0  0  0  0  0  0  0  0  0  0  0  0
   26.2329    5.1952   30.9833 H   0  0  0  0  0  0  0  0  0  0  0  0
   28.5019    1.1775   32.2196 H   0  0  0  0  0  0  0  0  0  0  0  0
   26.7619    0.7543   32.0791 H   0  0  0  0  0  0  0  0  0  0  0  0
   27.5611    1.7099   30.7850 H   0  0  0  0  0  0  0  0  0  0  0  0
   22.2382    2.4668   31.9881 H   0  0  0  0  0  0  0  0  0  0  0  0
   23.8253   -0.1897   33.9134 H   0  0  0  0  0  0  0  0  0  0  0  0
   22.5496    0.9854   33.4463 H   0  0  0  0  0  0  0  0  0  0  0  0
   23.4953    0.1349   32.1778 H   0  0  0  0  0  0  0  0  0  0  0  0
  1  2  1  0  0  0  0
  2  3  1  0  0  0  0
  2  4  1  0  0  0  0
  4  5  1  0  0  0  0
  5 11  2  0  0  0  0
  5  6  1  0  0  0  0
  6  7  2  0  0  0  0
  7  8  1  0  0  0  0
  7 14  1  0  0  0  0
  8  9  1  0  0  0  0
  9 10  2  0  0  0  0
  9 11  1  0  0  0  0
 11 12  1  0  0  0  0
 12 13  3  0  0  0  0
 14 15  2  0  0  0  0
 15 16  1  0  0  0  0
 15 17  1  0  0  0  0
 17 18  1  0  0  0  0
 18 29  2  0  0  0  0
 18 19  1  0  0  0  0
 19 20  1  0  0  0  0
 19 22  2  0  0  0  0
 20 21  1  0  0  0  0
 22 23  1  0  0  0  0
 23 24  1  0  0  0  0
 23 28  2  0  0  0  0
 24 25  2  0  0  0  0
 24 26  2  0  0  0  0
 24 27  1  0  0  0  0
 28 29  1  0  0  0  0
 28 30  1  0  0  0  0
 30 31  1  0  0  0  0
  1 32  1  0  0  0  0
  1 33  1  0  0  0  0
  1 34  1  0  0  0  0
  2 35  1  0  0  0  0
  3 36  1  0  0  0  0
  3 37  1  0  0  0  0
  3 38  1  0  0  0  0
  8 39  1  0  0  0  0
  8 40  1  0  0  0  0
 10 41  1  0  0  0  0
 16 42  1  0  0  0  0
 17 43  1  0  0  0  0
 17 44  1  0  0  0  0
 21 45  1  0  0  0  0
 21 46  1  0  0  0  0
 21 47  1  0  0  0  0
 22 48  1  0  0  0  0
 27 49  1  0  0  0  0
 27 50  1  0  0  0  0
 27 51  1  0  0  0  0
 29 52  1  0  0  0  0
 31 53  1  0  0  0  0
 31 54  1  0  0  0  0
 31 55  1  0  0  0  0
M  END
> <i_m_stars>
0

> <r_user_dG.exp>
-10.682977

$$$$
