17124-1
  -OEChem-05162309453D
 Structure written by MMmdl.
 46 47  0     0  0  0  0  0  0999 V2000
   24.0816   12.3916   30.2423 C   0  0  0  0  0  0  0  0  0  0  0  0
   23.3500   11.0657   30.4628 C   0  0  0  0  0  0  0  0  0  0  0  0
   22.2121   11.3274   31.2794 O   0  0  0  0  0  0  0  0  0  0  0  0
   21.4127   10.2773   31.6976 C   0  0  0  0  0  0  0  0  0  0  0  0
   21.7567    9.0266   31.2850 N   0  0  0  0  0  0  0  0  0  0  0  0
   20.9811    7.9971   31.6572 C   0  0  0  0  0  0  0  0  0  0  0  0
   19.8706    8.1421   32.4769 C   0  0  0  0  0  0  0  0  0  0  0  0
   19.5217    9.4143   32.8937 C   0  0  0  0  0  0  0  0  0  0  0  0
   18.3827    9.4958   33.6863 N   0  0  0  0  0  0  0  0  0  0  0  0
   20.2923   10.5202   32.5003 C   0  0  0  0  0  0  0  0  0  0  0  0
   19.9657   11.8905   32.8774 C   0  0  0  0  0  0  0  0  0  0  0  0
   19.7135   12.9814   33.1712 N   0  0  0  0  0  0  0  0  0  0  0  0
   21.4435    6.8153   31.1146 N   0  0  0  0  0  0  0  0  0  0  0  0
   20.8639    5.6146   31.0308 C   0  0  0  0  0  0  0  0  0  0  0  0
   19.7396    5.3500   31.4512 O   0  0  0  0  0  0  0  0  0  0  0  0
   21.6499    4.5466   30.2798 C   0  0  0  0  0  0  0  0  0  0  0  0
   23.0247    4.2587   30.8770 C   0  0  0  0  0  0  0  0  0  0  0  0
   24.1218    5.0797   30.5737 C   0  0  0  0  0  0  0  0  0  0  0  0
   23.8940    6.1755   29.7600 O   0  0  0  0  0  0  0  0  0  0  0  0
   24.9260    7.1419   29.5741 C   0  0  0  0  0  0  0  0  0  0  0  0
   25.3756    4.7488   31.1028 C   0  0  0  0  0  0  0  0  0  0  0  0
   25.5283    3.6468   31.9432 C   0  0  0  0  0  0  0  0  0  0  0  0
   27.2648    3.2511   32.6230 Br  0  0  0  0  0  0  0  0  0  0  0  0
   24.4329    2.8399   32.2701 C   0  0  0  0  0  0  0  0  0  0  0  0
   23.1819    3.1565   31.7231 C   0  0  0  0  0  0  0  0  0  0  0  0
   24.6457    1.7801   33.1306 O   0  0  0  0  0  0  0  0  0  0  0  0
   23.7084    0.7066   33.1601 C   0  0  0  0  0  0  0  0  0  0  0  0
   24.9678   12.2218   29.6132 H   0  0  0  0  0  0  0  0  0  0  0  0
   23.4081   13.1031   29.7422 H   0  0  0  0  0  0  0  0  0  0  0  0
   24.3947   12.8034   31.2131 H   0  0  0  0  0  0  0  0  0  0  0  0
   23.0294   10.6498   29.4962 H   0  0  0  0  0  0  0  0  0  0  0  0
   24.0160   10.3501   30.9671 H   0  0  0  0  0  0  0  0  0  0  0  0
   19.2926    7.2823   32.7821 H   0  0  0  0  0  0  0  0  0  0  0  0
   18.2159   10.4502   33.9339 H   0  0  0  0  0  0  0  0  0  0  0  0
   17.5975    9.1411   33.1788 H   0  0  0  0  0  0  0  0  0  0  0  0
   22.3611    6.8660   30.7203 H   0  0  0  0  0  0  0  0  0  0  0  0
   21.0655    3.6147   30.2898 H   0  0  0  0  0  0  0  0  0  0  0  0
   21.7865    4.8826   29.2413 H   0  0  0  0  0  0  0  0  0  0  0  0
   24.5688    7.9358   28.9017 H   0  0  0  0  0  0  0  0  0  0  0  0
   25.1978    7.5795   30.5460 H   0  0  0  0  0  0  0  0  0  0  0  0
   25.8079    6.6558   29.1314 H   0  0  0  0  0  0  0  0  0  0  0  0
   26.2350    5.3549   30.8567 H   0  0  0  0  0  0  0  0  0  0  0  0
   22.3268    2.5402   31.9585 H   0  0  0  0  0  0  0  0  0  0  0  0
   24.0326   -0.0438   33.8962 H   0  0  0  0  0  0  0  0  0  0  0  0
   22.7178    1.0926   33.4422 H   0  0  0  0  0  0  0  0  0  0  0  0
   23.6511    0.2425   32.1644 H   0  0  0  0  0  0  0  0  0  0  0  0
  1  2  1  0  0  0  0
  2  3  1  0  0  0  0
  3  4  1  0  0  0  0
  4 10  2  0  0  0  0
  4  5  1  0  0  0  0
  5  6  2  0  0  0  0
  6  7  1  0  0  0  0
  6 13  1  0  0  0  0
  7  8  2  0  0  0  0
  8  9  1  0  0  0  0
  8 10  1  0  0  0  0
 10 11  1  0  0  0  0
 11 12  3  0  0  0  0
 13 14  1  0  0  0  0
 14 15  2  0  0  0  0
 14 16  1  0  0  0  0
 16 17  1  0  0  0  0
 17 25  2  0  0  0  0
 17 18  1  0  0  0  0
 18 19  1  0  0  0  0
 18 21  2  0  0  0  0
 19 20  1  0  0  0  0
 21 22  1  0  0  0  0
 22 23  1  0  0  0  0
 22 24  2  0  0  0  0
 24 25  1  0  0  0  0
 24 26  1  0  0  0  0
 26 27  1  0  0  0  0
  1 28  1  0  0  0  0
  1 29  1  0  0  0  0
  1 30  1  0  0  0  0
  2 31  1  0  0  0  0
  2 32  1  0  0  0  0
  7 33  1  0  0  0  0
  9 34  1  0  0  0  0
  9 35  1  0  0  0  0
 13 36  1  0  0  0  0
 16 37  1  0  0  0  0
 16 38  1  0  0  0  0
 20 39  1  0  0  0  0
 20 40  1  0  0  0  0
 20 41  1  0  0  0  0
 21 42  1  0  0  0  0
 25 43  1  0  0  0  0
 27 44  1  0  0  0  0
 27 45  1  0  0  0  0
 27 46  1  0  0  0  0
M  END
> <i_m_stars>
0

> <r_user_dG.exp>
-9.675922

$$$$
17124-1
  -OEChem-05162309453D
 Structure written by MMmdl.
 46 47  0     0  0  0  0  0  0999 V2000
   24.0816   12.3916   30.2423 C   0  0  0  0  0  0  0  0  0  0  0  0
   23.3500   11.0657   30.4628 C   0  0  0  0  0  0  0  0  0  0  0  0
   22.2121   11.3274   31.2794 O   0  0  0  0  0  0  0  0  0  0  0  0
   21.4127   10.2773   31.6976 C   0  0  0  0  0  0  0  0  0  0  0  0
   21.7567    9.0266   31.2850 N   0  0  0  0  0  0  0  0  0  0  0  0
   20.9811    7.9971   31.6572 C   0  0  0  0  0  0  0  0  0  0  0  0
   19.8706    8.1421   32.4769 C   0  0  0  0  0  0  0  0  0  0  0  0
   19.5217    9.4143   32.8937 C   0  0  0  0  0  0  0  0  0  0  0  0
   18.3827    9.4958   33.6863 N   0  0  0  0  0  0  0  0  0  0  0  0
   20.2923   10.5202   32.5003 C   0  0  0  0  0  0  0  0  0  0  0  0
   19.9657   11.8905   32.8774 C   0  0  0  0  0  0  0  0  0  0  0  0
   19.7135   12.9814   33.1712 N   0  0  0  0  0  0  0  0  0  0  0  0
   21.4435    6.8153   31.1146 N   0  0  0  0  0  0  0  0  0  0  0  0
   20.8639    5.6146   31.0308 C   0  0  0  0  0  0  0  0  0  0  0  0
   19.7396    5.3500   31.4512 O   0  0  0  0  0  0  0  0  0  0  0  0
   21.6499    4.5466   30.2798 C   0  0  0  0  0  0  0  0  0  0  0  0
   23.0247    4.2587   30.8770 C   0  0  0  0  0  0  0  0  0  0  0  0
   24.1218    5.0797   30.5737 C   0  0  0  0  0  0  0  0  0  0  0  0
   23.8940    6.1755   29.7600 O   0  0  0  0  0  0  0  0  0  0  0  0
   24.9260    7.1419   29.5741 C   0  0  0  0  0  0  0  0  0  0  0  0
   25.3756    4.7488   31.1028 C   0  0  0  0  0  0  0  0  0  0  0  0
   25.5283    3.6468   31.9432 C   0  0  0  0  0  0  0  0  0  0  0  0
   27.2648    3.2511   32.6230 Br  0  0  0  0  0  0  0  0  0  0  0  0
   24.4329    2.8399   32.2701 C   0  0  0  0  0  0  0  0  0  0  0  0
   23.1819    3.1565   31.7231 C   0  0  0  0  0  0  0  0  0  0  0  0
   24.6457    1.7801   33.1306 O   0  0  0  0  0  0  0  0  0  0  0  0
   23.7084    0.7066   33.1601 C   0  0  0  0  0  0  0  0  0  0  0  0
   24.9678   12.2218   29.6132 H   0  0  0  0  0  0  0  0  0  0  0  0
   23.4081   13.1031   29.7422 H   0  0  0  0  0  0  0  0  0  0  0  0
   24.3947   12.8034   31.2131 H   0  0  0  0  0  0  0  0  0  0  0  0
   23.0294   10.6498   29.4962 H   0  0  0  0  0  0  0  0  0  0  0  0
   24.0160   10.3501   30.9671 H   0  0  0  0  0  0  0  0  0  0  0  0
   19.2926    7.2823   32.7821 H   0  0  0  0  0  0  0  0  0  0  0  0
   18.2159   10.4502   33.9339 H   0  0  0  0  0  0  0  0  0  0  0  0
   17.5975    9.1411   33.1788 H   0  0  0  0  0  0  0  0  0  0  0  0
   19.5437    4.4364   31.2795 H   0  0  0  0  0  0  0  0  0  0  0  0
   21.0655    3.6147   30.2898 H   0  0  0  0  0  0  0  0  0  0  0  0
   21.7865    4.8826   29.2413 H   0  0  0  0  0  0  0  0  0  0  0  0
   24.5688    7.9358   28.9017 H   0  0  0  0  0  0  0  0  0  0  0  0
   25.1978    7.5795   30.5460 H   0  0  0  0  0  0  0  0  0  0  0  0
   25.8079    6.6558   29.1314 H   0  0  0  0  0  0  0  0  0  0  0  0
   26.2350    5.3549   30.8567 H   0  0  0  0  0  0  0  0  0  0  0  0
   22.3268    2.5402   31.9585 H   0  0  0  0  0  0  0  0  0  0  0  0
   24.0326   -0.0438   33.8962 H   0  0  0  0  0  0  0  0  0  0  0  0
   22.7178    1.0926   33.4422 H   0  0  0  0  0  0  0  0  0  0  0  0
   23.6511    0.2425   32.1644 H   0  0  0  0  0  0  0  0  0  0  0  0
  1  2  1  0  0  0  0
  2  3  1  0  0  0  0
  3  4  1  0  0  0  0
  4 10  2  0  0  0  0
  4  5  1  0  0  0  0
  5  6  2  0  0  0  0
  6  7  1  0  0  0  0
  6 13  1  0  0  0  0
  7  8  2  0  0  0  0
  8  9  1  0  0  0  0
  8 10  1  0  0  0  0
 10 11  1  0  0  0  0
 11 12  3  0  0  0  0
 13 14  2  0  0  0  0
 14 15  1  0  0  0  0
 14 16  1  0  0  0  0
 16 17  1  0  0  0  0
 17 25  2  0  0  0  0
 17 18  1  0  0  0  0
 18 19  1  0  0  0  0
 18 21  2  0  0  0  0
 19 20  1  0  0  0  0
 21 22  1  0  0  0  0
 22 23  1  0  0  0  0
 22 24  2  0  0  0  0
 24 25  1  0  0  0  0
 24 26  1  0  0  0  0
 26 27  1  0  0  0  0
  1 28  1  0  0  0  0
  1 29  1  0  0  0  0
  1 30  1  0  0  0  0
  2 31  1  0  0  0  0
  2 32  1  0  0  0  0
  7 33  1  0  0  0  0
  9 34  1  0  0  0  0
  9 35  1  0  0  0  0
 15 36  1  0  0  0  0
 16 37  1  0  0  0  0
 16 38  1  0  0  0  0
 20 39  1  0  0  0  0
 20 40  1  0  0  0  0
 20 41  1  0  0  0  0
 21 42  1  0  0  0  0
 25 43  1  0  0  0  0
 27 44  1  0  0  0  0
 27 45  1  0  0  0  0
 27 46  1  0  0  0  0
M  END
> <i_m_stars>
0

> <r_user_dG.exp>
-9.675922

$$$$
17124-1
  -OEChem-05162309453D
 Structure written by MMmdl.
 46 47  0     0  0  0  0  0  0999 V2000
   24.0816   12.3916   30.2423 C   0  0  0  0  0  0  0  0  0  0  0  0
   23.3500   11.0657   30.4628 C   0  0  0  0  0  0  0  0  0  0  0  0
   22.2121   11.3274   31.2794 O   0  0  0  0  0  0  0  0  0  0  0  0
   21.4127   10.2773   31.6976 C   0  0  0  0  0  0  0  0  0  0  0  0
   21.7567    9.0266   31.2850 N   0  0  0  0  0  0  0  0  0  0  0  0
   20.9811    7.9971   31.6572 C   0  0  0  0  0  0  0  0  0  0  0  0
   19.8706    8.1421   32.4769 C   0  0  0  0  0  0  0  0  0  0  0  0
   19.5217    9.4143   32.8937 C   0  0  0  0  0  0  0  0  0  0  0  0
   18.3827    9.4958   33.6863 N   0  0  0  0  0  0  0  0  0  0  0  0
   20.2923   10.5202   32.5003 C   0  0  0  0  0  0  0  0  0  0  0  0
   19.9657   11.8905   32.8774 C   0  0  0  0  0  0  0  0  0  0  0  0
   19.7135   12.9814   33.1712 N   0  0  0  0  0  0  0  0  0  0  0  0
   21.4435    6.8153   31.1146 N   0  0  0  0  0  0  0  0  0  0  0  0
   20.8639    5.6146   31.0308 C   0  0  0  0  0  0  0  0  0  0  0  0
   19.7396    5.3500   31.4512 O   0  0  0  0  0  0  0  0  0  0  0  0
   21.6499    4.5466   30.2798 C   0  0  0  0  0  0  0  0  0  0  0  0
   23.0247    4.2587   30.8770 C   0  0  0  0  0  0  0  0  0  0  0  0
   24.1218    5.0797   30.5737 C   0  0  0  0  0  0  0  0  0  0  0  0
   23.8940    6.1755   29.7600 O   0  0  0  0  0  0  0  0  0  0  0  0
   24.9260    7.1419   29.5741 C   0  0  0  0  0  0  0  0  0  0  0  0
   25.3756    4.7488   31.1028 C   0  0  0  0  0  0  0  0  0  0  0  0
   25.5283    3.6468   31.9432 C   0  0  0  0  0  0  0  0  0  0  0  0
   27.2648    3.2511   32.6230 Br  0  0  0  0  0  0  0  0  0  0  0  0
   24.4329    2.8399   32.2701 C   0  0  0  0  0  0  0  0  0  0  0  0
   23.1819    3.1565   31.7231 C   0  0  0  0  0  0  0  0  0  0  0  0
   24.6457    1.7801   33.1306 O   0  0  0  0  0  0  0  0  0  0  0  0
   23.7084    0.7066   33.1601 C   0  0  0  0  0  0  0  0  0  0  0  0
   24.9678   12.2218   29.6132 H   0  0  0  0  0  0  0  0  0  0  0  0
   23.4081   13.1031   29.7422 H   0  0  0  0  0  0  0  0  0  0  0  0
   24.3947   12.8034   31.2131 H   0  0  0  0  0  0  0  0  0  0  0  0
   23.0294   10.6498   29.4962 H   0  0  0  0  0  0  0  0  0  0  0  0
   24.0160   10.3501   30.9671 H   0  0  0  0  0  0  0  0  0  0  0  0
   22.5674    8.8788   30.7185 H   0  0  0  0  0  0  0  0  0  0  0  0
   19.2926    7.2823   32.7821 H   0  0  0  0  0  0  0  0  0  0  0  0
   18.1737   10.4386   33.9459 H   0  0  0  0  0  0  0  0  0  0  0  0
   22.3611    6.8660   30.7203 H   0  0  0  0  0  0  0  0  0  0  0  0
   21.0655    3.6147   30.2898 H   0  0  0  0  0  0  0  0  0  0  0  0
   21.7865    4.8826   29.2413 H   0  0  0  0  0  0  0  0  0  0  0  0
   24.5688    7.9358   28.9017 H   0  0  0  0  0  0  0  0  0  0  0  0
   25.1978    7.5795   30.5460 H   0  0  0  0  0  0  0  0  0  0  0  0
   25.8079    6.6558   29.1314 H   0  0  0  0  0  0  0  0  0  0  0  0
   26.2350    5.3549   30.8567 H   0  0  0  0  0  0  0  0  0  0  0  0
   22.3268    2.5402   31.9585 H   0  0  0  0  0  0  0  0  0  0  0  0
   24.0326   -0.0438   33.8962 H   0  0  0  0  0  0  0  0  0  0  0  0
   22.7178    1.0926   33.4422 H   0  0  0  0  0  0  0  0  0  0  0  0
   23.6511    0.2425   32.1644 H   0  0  0  0  0  0  0  0  0  0  0  0
  1  2  1  0  0  0  0
  2  3  1  0  0  0  0
  3  4  1  0  0  0  0
  4 10  2  0  0  0  0
  4  5  1  0  0  0  0
  5  6  1  0  0  0  0
  6  7  2  0  0  0  0
  6 13  1  0  0  0  0
  7  8  1  0  0  0  0
  8  9  2  0  0  0  0
  8 10  1  0  0  0  0
 10 11  1  0  0  0  0
 11 12  3  0  0  0  0
 13 14  1  0  0  0  0
 14 15  2  0  0  0  0
 14 16  1  0  0  0  0
 16 17  1  0  0  0  0
 17 25  2  0  0  0  0
 17 18  1  0  0  0  0
 18 19  1  0  0  0  0
 18 21  2  0  0  0  0
 19 20  1  0  0  0  0
 21 22  1  0  0  0  0
 22 23  1  0  0  0  0
 22 24  2  0  0  0  0
 24 25  1  0  0  0  0
 24 26  1  0  0  0  0
 26 27  1  0  0  0  0
  1 28  1  0  0  0  0
  1 29  1  0  0  0  0
  1 30  1  0  0  0  0
  2 31  1  0  0  0  0
  2 32  1  0  0  0  0
  5 33  1  0  0  0  0
  7 34  1  0  0  0  0
  9 35  1  0  0  0  0
 13 36  1  0  0  0  0
 16 37  1  0  0  0  0
 16 38  1  0  0  0  0
 20 39  1  0  0  0  0
 20 40  1  0  0  0  0
 20 41  1  0  0  0  0
 21 42  1  0  0  0  0
 25 43  1  0  0  0  0
 27 44  1  0  0  0  0
 27 45  1  0  0  0  0
 27 46  1  0  0  0  0
M  END
> <i_m_stars>
0

> <r_user_dG.exp>
-9.675922

$$$$
17124-1
  -OEChem-05162309453D
 Structure written by MMmdl.
 46 47  0     0  0  0  0  0  0999 V2000
   24.0816   12.3916   30.2423 C   0  0  0  0  0  0  0  0  0  0  0  0
   23.3500   11.0657   30.4628 C   0  0  0  0  0  0  0  0  0  0  0  0
   22.2121   11.3274   31.2794 O   0  0  0  0  0  0  0  0  0  0  0  0
   21.4127   10.2773   31.6976 C   0  0  0  0  0  0  0  0  0  0  0  0
   21.7567    9.0266   31.2850 N   0  0  0  0  0  0  0  0  0  0  0  0
   20.9811    7.9971   31.6572 C   0  0  0  0  0  0  0  0  0  0  0  0
   19.8706    8.1421   32.4769 C   0  0  0  0  0  0  0  0  0  0  0  0
   19.5217    9.4143   32.8937 C   0  0  0  0  0  0  0  0  0  0  0  0
   18.3827    9.4958   33.6863 N   0  0  0  0  0  0  0  0  0  0  0  0
   20.2923   10.5202   32.5003 C   0  0  0  0  0  0  0  0  0  0  0  0
   19.9657   11.8905   32.8774 C   0  0  0  0  0  0  0  0  0  0  0  0
   19.7135   12.9814   33.1712 N   0  0  0  0  0  0  0  0  0  0  0  0
   21.4435    6.8153   31.1146 N   0  0  0  0  0  0  0  0  0  0  0  0
   20.8639    5.6146   31.0308 C   0  0  0  0  0  0  0  0  0  0  0  0
   19.7396    5.3500   31.4512 O   0  0  0  0  0  0  0  0  0  0  0  0
   21.6499    4.5466   30.2798 C   0  0  0  0  0  0  0  0  0  0  0  0
   23.0247    4.2587   30.8770 C   0  0  0  0  0  0  0  0  0  0  0  0
   24.1218    5.0797   30.5737 C   0  0  0  0  0  0  0  0  0  0  0  0
   23.8940    6.1755   29.7600 O   0  0  0  0  0  0  0  0  0  0  0  0
   24.9260    7.1419   29.5741 C   0  0  0  0  0  0  0  0  0  0  0  0
   25.3756    4.7488   31.1028 C   0  0  0  0  0  0  0  0  0  0  0  0
   25.5283    3.6468   31.9432 C   0  0  0  0  0  0  0  0  0  0  0  0
   27.2648    3.2511   32.6230 Br  0  0  0  0  0  0  0  0  0  0  0  0
   24.4329    2.8399   32.2701 C   0  0  0  0  0  0  0  0  0  0  0  0
   23.1819    3.1565   31.7231 C   0  0  0  0  0  0  0  0  0  0  0  0
   24.6457    1.7801   33.1306 O   0  0  0  0  0  0  0  0  0  0  0  0
   23.7084    0.7066   33.1601 C   0  0  0  0  0  0  0  0  0  0  0  0
   24.9678   12.2218   29.6132 H   0  0  0  0  0  0  0  0  0  0  0  0
   23.4081   13.1031   29.7422 H   0  0  0  0  0  0  0  0  0  0  0  0
   24.3947   12.8034   31.2131 H   0  0  0  0  0  0  0  0  0  0  0  0
   23.0294   10.6498   29.4962 H   0  0  0  0  0  0  0  0  0  0  0  0
   24.0160   10.3501   30.9671 H   0  0  0  0  0  0  0  0  0  0  0  0
   22.5674    8.8788   30.7185 H   0  0  0  0  0  0  0  0  0  0  0  0
   19.2926    7.2823   32.7821 H   0  0  0  0  0  0  0  0  0  0  0  0
   18.2159   10.4502   33.9339 H   0  0  0  0  0  0  0  0  0  0  0  0
   17.5975    9.1411   33.1788 H   0  0  0  0  0  0  0  0  0  0  0  0
   21.0655    3.6147   30.2898 H   0  0  0  0  0  0  0  0  0  0  0  0
   21.7865    4.8826   29.2413 H   0  0  0  0  0  0  0  0  0  0  0  0
   24.5688    7.9358   28.9017 H   0  0  0  0  0  0  0  0  0  0  0  0
   25.1978    7.5795   30.5460 H   0  0  0  0  0  0  0  0  0  0  0  0
   25.8079    6.6558   29.1314 H   0  0  0  0  0  0  0  0  0  0  0  0
   26.2350    5.3549   30.8567 H   0  0  0  0  0  0  0  0  0  0  0  0
   22.3268    2.5402   31.9585 H   0  0  0  0  0  0  0  0  0  0  0  0
   24.0326   -0.0438   33.8962 H   0  0  0  0  0  0  0  0  0  0  0  0
   22.7178    1.0926   33.4422 H   0  0  0  0  0  0  0  0  0  0  0  0
   23.6511    0.2425   32.1644 H   0  0  0  0  0  0  0  0  0  0  0  0
  1  2  1  0  0  0  0
  2  3  1  0  0  0  0
  3  4  1  0  0  0  0
  4 10  2  0  0  0  0
  4  5  1  0  0  0  0
  5  6  1  0  0  0  0
  6  7  1  0  0  0  0
  6 13  2  0  0  0  0
  7  8  2  0  0  0  0
  8  9  1  0  0  0  0
  8 10  1  0  0  0  0
 10 11  1  0  0  0  0
 11 12  3  0  0  0  0
 13 14  1  0  0  0  0
 14 15  2  0  0  0  0
 14 16  1  0  0  0  0
 16 17  1  0  0  0  0
 17 25  2  0  0  0  0
 17 18  1  0  0  0  0
 18 19  1  0  0  0  0
 18 21  2  0  0  0  0
 19 20  1  0  0  0  0
 21 22  1  0  0  0  0
 22 23  1  0  0  0  0
 22 24  2  0  0  0  0
 24 25  1  0  0  0  0
 24 26  1  0  0  0  0
 26 27  1  0  0  0  0
  1 28  1  0  0  0  0
  1 29  1  0  0  0  0
  1 30  1  0  0  0  0
  2 31  1  0  0  0  0
  2 32  1  0  0  0  0
  5 33  1  0  0  0  0
  7 34  1  0  0  0  0
  9 35  1  0  0  0  0
  9 36  1  0  0  0  0
 16 37  1  0  0  0  0
 16 38  1  0  0  0  0
 20 39  1  0  0  0  0
 20 40  1  0  0  0  0
 20 41  1  0  0  0  0
 21 42  1  0  0  0  0
 25 43  1  0  0  0  0
 27 44  1  0  0  0  0
 27 45  1  0  0  0  0
 27 46  1  0  0  0  0
M  END
> <i_m_stars>
0

> <r_user_dG.exp>
-9.675922

$$$$
17124-1
  -OEChem-05162309453D
 Structure written by MMmdl.
 46 47  0     0  0  0  0  0  0999 V2000
   24.0816   12.3916   30.2423 C   0  0  0  0  0  0  0  0  0  0  0  0
   23.3500   11.0657   30.4628 C   0  0  0  0  0  0  0  0  0  0  0  0
   22.2121   11.3274   31.2794 O   0  0  0  0  0  0  0  0  0  0  0  0
   21.4127   10.2773   31.6976 C   0  0  0  0  0  0  0  0  0  0  0  0
   21.7567    9.0266   31.2850 N   0  0  0  0  0  0  0  0  0  0  0  0
   20.9811    7.9971   31.6572 C   0  0  0  0  0  0  0  0  0  0  0  0
   19.8706    8.1421   32.4769 C   0  0  0  0  0  0  0  0  0  0  0  0
   19.5217    9.4143   32.8937 C   0  0  0  0  0  0  0  0  0  0  0  0
   18.3827    9.4958   33.6863 N   0  0  0  0  0  0  0  0  0  0  0  0
   20.2923   10.5202   32.5003 C   0  0  0  0  0  0  0  0  0  0  0  0
   19.9657   11.8905   32.8774 C   0  0  0  0  0  0  0  0  0  0  0  0
   19.7135   12.9814   33.1712 N   0  0  0  0  0  0  0  0  0  0  0  0
   21.4435    6.8153   31.1146 N   0  0  0  0  0  0  0  0  0  0  0  0
   20.8639    5.6146   31.0308 C   0  0  0  0  0  0  0  0  0  0  0  0
   19.7396    5.3500   31.4512 O   0  0  0  0  0  0  0  0  0  0  0  0
   21.6499    4.5466   30.2798 C   0  0  0  0  0  0  0  0  0  0  0  0
   23.0247    4.2587   30.8770 C   0  0  0  0  0  0  0  0  0  0  0  0
   24.1218    5.0797   30.5737 C   0  0  0  0  0  0  0  0  0  0  0  0
   23.8940    6.1755   29.7600 O   0  0  0  0  0  0  0  0  0  0  0  0
   24.9260    7.1419   29.5741 C   0  0  0  0  0  0  0  0  0  0  0  0
   25.3756    4.7488   31.1028 C   0  0  0  0  0  0  0  0  0  0  0  0
   25.5283    3.6468   31.9432 C   0  0  0  0  0  0  0  0  0  0  0  0
   27.2648    3.2511   32.6230 Br  0  0  0  0  0  0  0  0  0  0  0  0
   24.4329    2.8399   32.2701 C   0  0  0  0  0  0  0  0  0  0  0  0
   23.1819    3.1565   31.7231 C   0  0  0  0  0  0  0  0  0  0  0  0
   24.6457    1.7801   33.1306 O   0  0  0  0  0  0  0  0  0  0  0  0
   23.7084    0.7066   33.1601 C   0  0  0  0  0  0  0  0  0  0  0  0
   24.9678   12.2218   29.6132 H   0  0  0  0  0  0  0  0  0  0  0  0
   23.4081   13.1031   29.7422 H   0  0  0  0  0  0  0  0  0  0  0  0
   24.3947   12.8034   31.2131 H   0  0  0  0  0  0  0  0  0  0  0  0
   23.0294   10.6498   29.4962 H   0  0  0  0  0  0  0  0  0  0  0  0
   24.0160   10.3501   30.9671 H   0  0  0  0  0  0  0  0  0  0  0  0
   22.5674    8.8788   30.7185 H   0  0  0  0  0  0  0  0  0  0  0  0
   19.2926    7.2823   32.7821 H   0  0  0  0  0  0  0  0  0  0  0  0
   18.1737   10.4386   33.9459 H   0  0  0  0  0  0  0  0  0  0  0  0
   19.5437    4.4364   31.2795 H   0  0  0  0  0  0  0  0  0  0  0  0
   21.0655    3.6147   30.2898 H   0  0  0  0  0  0  0  0  0  0  0  0
   21.7865    4.8826   29.2413 H   0  0  0  0  0  0  0  0  0  0  0  0
   24.5688    7.9358   28.9017 H   0  0  0  0  0  0  0  0  0  0  0  0
   25.1978    7.5795   30.5460 H   0  0  0  0  0  0  0  0  0  0  0  0
   25.8079    6.6558   29.1314 H   0  0  0  0  0  0  0  0  0  0  0  0
   26.2350    5.3549   30.8567 H   0  0  0  0  0  0  0  0  0  0  0  0
   22.3268    2.5402   31.9585 H   0  0  0  0  0  0  0  0  0  0  0  0
   24.0326   -0.0438   33.8962 H   0  0  0  0  0  0  0  0  0  0  0  0
   22.7178    1.0926   33.4422 H   0  0  0  0  0  0  0  0  0  0  0  0
   23.6511    0.2425   32.1644 H   0  0  0  0  0  0  0  0  0  0  0  0
  1  2  1  0  0  0  0
  2  3  1  0  0  0  0
  3  4  1  0  0  0  0
  4 10  2  0  0  0  0
  4  5  1  0  0  0  0
  5  6  1  0  0  0  0
  6  7  2  0  0  0  0
  6 13  1  0  0  0  0
  7  8  1  0  0  0  0
  8  9  2  0  0  0  0
  8 10  1  0  0  0  0
 10 11  1  0  0  0  0
 11 12  3  0  0  0  0
 13 14  2  0  0  0  0
 14 15  1  0  0  0  0
 14 16  1  0  0  0  0
 16 17  1  0  0  0  0
 17 25  2  0  0  0  0
 17 18  1  0  0  0  0
 18 19  1  0  0  0  0
 18 21  2  0  0  0  0
 19 20  1  0  0  0  0
 21 22  1  0  0  0  0
 22 23  1  0  0  0  0
 22 24  2  0  0  0  0
 24 25  1  0  0  0  0
 24 26  1  0  0  0  0
 26 27  1  0  0  0  0
  1 28  1  0  0  0  0
  1 29  1  0  0  0  0
  1 30  1  0  0  0  0
  2 31  1  0  0  0  0
  2 32  1  0  0  0  0
  5 33  1  0  0  0  0
  7 34  1  0  0  0  0
  9 35  1  0  0  0  0
 15 36  1  0  0  0  0
 16 37  1  0  0  0  0
 16 38  1  0  0  0  0
 20 39  1  0  0  0  0
 20 40  1  0  0  0  0
 20 41  1  0  0  0  0
 21 42  1  0  0  0  0
 25 43  1  0  0  0  0
 27 44  1  0  0  0  0
 27 45  1  0  0  0  0
 27 46  1  0  0  0  0
M  END
> <i_m_stars>
0

> <r_user_dG.exp>
-9.675922

$$$$
17124-1
  -OEChem-05162309453D
 Structure written by MMmdl.
 46 47  0     1  0  0  0  0  0999 V2000
   24.0816   12.3916   30.2423 C   0  0  0  0  0  0  0  0  0  0  0  0
   23.3500   11.0657   30.4628 C   0  0  0  0  0  0  0  0  0  0  0  0
   22.2121   11.3274   31.2794 O   0  0  0  0  0  0  0  0  0  0  0  0
   21.4127   10.2773   31.6976 C   0  0  0  0  0  0  0  0  0  0  0  0
   21.7567    9.0266   31.2850 N   0  0  0  0  0  0  0  0  0  0  0  0
   20.9811    7.9971   31.6572 C   0  0  0  0  0  0  0  0  0  0  0  0
   19.8706    8.1421   32.4769 C   0  0  0  0  0  0  0  0  0  0  0  0
   19.5217    9.4143   32.8937 C   0  0  0  0  0  0  0  0  0  0  0  0
   18.3827    9.4958   33.6863 N   0  0  0  0  0  0  0  0  0  0  0  0
   20.2923   10.5202   32.5003 C   0  0  3  0  0  0  0  0  0  0  0  0
   19.9657   11.8905   32.8774 C   0  0  0  0  0  0  0  0  0  0  0  0
   19.7135   12.9814   33.1712 N   0  0  0  0  0  0  0  0  0  0  0  0
   21.4435    6.8153   31.1146 N   0  0  0  0  0  0  0  0  0  0  0  0
   20.8639    5.6146   31.0308 C   0  0  0  0  0  0  0  0  0  0  0  0
   19.7396    5.3500   31.4512 O   0  0  0  0  0  0  0  0  0  0  0  0
   21.6499    4.5466   30.2798 C   0  0  0  0  0  0  0  0  0  0  0  0
   23.0247    4.2587   30.8770 C   0  0  0  0  0  0  0  0  0  0  0  0
   24.1218    5.0797   30.5737 C   0  0  0  0  0  0  0  0  0  0  0  0
   23.8940    6.1755   29.7600 O   0  0  0  0  0  0  0  0  0  0  0  0
   24.9260    7.1419   29.5741 C   0  0  0  0  0  0  0  0  0  0  0  0
   25.3756    4.7488   31.1028 C   0  0  0  0  0  0  0  0  0  0  0  0
   25.5283    3.6468   31.9432 C   0  0  0  0  0  0  0  0  0  0  0  0
   27.2648    3.2511   32.6230 Br  0  0  0  0  0  0  0  0  0  0  0  0
   24.4329    2.8399   32.2701 C   0  0  0  0  0  0  0  0  0  0  0  0
   23.1819    3.1565   31.7231 C   0  0  0  0  0  0  0  0  0  0  0  0
   24.6457    1.7801   33.1306 O   0  0  0  0  0  0  0  0  0  0  0  0
   23.7084    0.7066   33.1601 C   0  0  0  0  0  0  0  0  0  0  0  0
   24.9678   12.2218   29.6132 H   0  0  0  0  0  0  0  0  0  0  0  0
   23.4081   13.1031   29.7422 H   0  0  0  0  0  0  0  0  0  0  0  0
   24.3947   12.8034   31.2131 H   0  0  0  0  0  0  0  0  0  0  0  0
   23.0294   10.6498   29.4962 H   0  0  0  0  0  0  0  0  0  0  0  0
   24.0160   10.3501   30.9671 H   0  0  0  0  0  0  0  0  0  0  0  0
   19.0083    7.7306   31.9319 H   0  0  0  0  0  0  0  0  0  0  0  0
   20.0532    7.5425   33.3808 H   0  0  0  0  0  0  0  0  0  0  0  0
   18.1737   10.4386   33.9459 H   0  0  0  0  0  0  0  0  0  0  0  0
   20.9115   10.4151   33.4034 H   0  0  0  0  0  0  0  0  0  0  0  0
   21.0655    3.6147   30.2898 H   0  0  0  0  0  0  0  0  0  0  0  0
   21.7865    4.8826   29.2413 H   0  0  0  0  0  0  0  0  0  0  0  0
   24.5688    7.9358   28.9017 H   0  0  0  0  0  0  0  0  0  0  0  0
   25.1978    7.5795   30.5460 H   0  0  0  0  0  0  0  0  0  0  0  0
   25.8079    6.6558   29.1314 H   0  0  0  0  0  0  0  0  0  0  0  0
   26.2350    5.3549   30.8567 H   0  0  0  0  0  0  0  0  0  0  0  0
   22.3268    2.5402   31.9585 H   0  0  0  0  0  0  0  0  0  0  0  0
   24.0326   -0.0438   33.8962 H   0  0  0  0  0  0  0  0  0  0  0  0
   22.7178    1.0926   33.4422 H   0  0  0  0  0  0  0  0  0  0  0  0
   23.6511    0.2425   32.1644 H   0  0  0  0  0  0  0  0  0  0  0  0
  1  2  1  0  0  0  0
  2  3  1  0  0  0  0
  3  4  1  0  0  0  0
  4 10  1  0  0  0  0
  4  5  2  0  0  0  0
  5  6  1  0  0  0  0
  6  7  1  0  0  0  0
  6 13  2  0  0  0  0
  7  8  1  0  0  0  0
  8  9  2  0  0  0  0
  8 10  1  0  0  0  0
 10 11  1  0  0  0  0
 11 12  3  0  0  0  0
 13 14  1  0  0  0  0
 14 15  2  0  0  0  0
 14 16  1  0  0  0  0
 16 17  1  0  0  0  0
 17 25  2  0  0  0  0
 17 18  1  0  0  0  0
 18 19  1  0  0  0  0
 18 21  2  0  0  0  0
 19 20  1  0  0  0  0
 21 22  1  0  0  0  0
 22 23  1  0  0  0  0
 22 24  2  0  0  0  0
 24 25  1  0  0  0  0
 24 26  1  0  0  0  0
 26 27  1  0  0  0  0
  1 28  1  0  0  0  0
  1 29  1  0  0  0  0
  1 30  1  0  0  0  0
  2 31  1  0  0  0  0
  2 32  1  0  0  0  0
  7 33  1  0  0  0  0
  7 34  1  0  0  0  0
  9 35  1  0  0  0  0
 10 36  1  0  0  0  0
 16 37  1  0  0  0  0
 16 38  1  0  0  0  0
 20 39  1  0  0  0  0
 20 40  1  0  0  0  0
 20 41  1  0  0  0  0
 21 42  1  0  0  0  0
 25 43  1  0  0  0  0
 27 44  1  0  0  0  0
 27 45  1  0  0  0  0
 27 46  1  0  0  0  0
M  END
> <i_m_stars>
0

> <r_user_dG.exp>
-9.675922

$$$$
17124-1
  -OEChem-05162309453D
 Structure written by MMmdl.
 46 47  0     1  0  0  0  0  0999 V2000
   24.0816   12.3916   30.2423 C   0  0  0  0  0  0  0  0  0  0  0  0
   23.3500   11.0657   30.4628 C   0  0  0  0  0  0  0  0  0  0  0  0
   22.2121   11.3274   31.2794 O   0  0  0  0  0  0  0  0  0  0  0  0
   21.4127   10.2773   31.6976 C   0  0  0  0  0  0  0  0  0  0  0  0
   21.7567    9.0266   31.2850 N   0  0  0  0  0  0  0  0  0  0  0  0
   20.9811    7.9971   31.6572 C   0  0  0  0  0  0  0  0  0  0  0  0
   19.8706    8.1421   32.4769 C   0  0  0  0  0  0  0  0  0  0  0  0
   19.5217    9.4143   32.8937 C   0  0  0  0  0  0  0  0  0  0  0  0
   18.3827    9.4958   33.6863 N   0  0  0  0  0  0  0  0  0  0  0  0
   20.2923   10.5202   32.5003 C   0  0  3  0  0  0  0  0  0  0  0  0
   19.9657   11.8905   32.8774 C   0  0  0  0  0  0  0  0  0  0  0  0
   19.7135   12.9814   33.1712 N   0  0  0  0  0  0  0  0  0  0  0  0
   21.4435    6.8153   31.1146 N   0  0  0  0  0  0  0  0  0  0  0  0
   20.8639    5.6146   31.0308 C   0  0  0  0  0  0  0  0  0  0  0  0
   19.7396    5.3500   31.4512 O   0  0  0  0  0  0  0  0  0  0  0  0
   21.6499    4.5466   30.2798 C   0  0  0  0  0  0  0  0  0  0  0  0
   23.0247    4.2587   30.8770 C   0  0  0  0  0  0  0  0  0  0  0  0
   24.1218    5.0797   30.5737 C   0  0  0  0  0  0  0  0  0  0  0  0
   23.8940    6.1755   29.7600 O   0  0  0  0  0  0  0  0  0  0  0  0
   24.9260    7.1419   29.5741 C   0  0  0  0  0  0  0  0  0  0  0  0
   25.3756    4.7488   31.1028 C   0  0  0  0  0  0  0  0  0  0  0  0
   25.5283    3.6468   31.9432 C   0  0  0  0  0  0  0  0  0  0  0  0
   27.2648    3.2511   32.6230 Br  0  0  0  0  0  0  0  0  0  0  0  0
   24.4329    2.8399   32.2701 C   0  0  0  0  0  0  0  0  0  0  0  0
   23.1819    3.1565   31.7231 C   0  0  0  0  0  0  0  0  0  0  0  0
   24.6457    1.7801   33.1306 O   0  0  0  0  0  0  0  0  0  0  0  0
   23.7084    0.7066   33.1601 C   0  0  0  0  0  0  0  0  0  0  0  0
   24.9678   12.2218   29.6132 H   0  0  0  0  0  0  0  0  0  0  0  0
   23.4081   13.1031   29.7422 H   0  0  0  0  0  0  0  0  0  0  0  0
   24.3947   12.8034   31.2131 H   0  0  0  0  0  0  0  0  0  0  0  0
   23.0294   10.6498   29.4962 H   0  0  0  0  0  0  0  0  0  0  0  0
   24.0160   10.3501   30.9671 H   0  0  0  0  0  0  0  0  0  0  0  0
   19.2926    7.2823   32.7821 H   0  0  0  0  0  0  0  0  0  0  0  0
   18.1737   10.4386   33.9459 H   0  0  0  0  0  0  0  0  0  0  0  0
   20.9115   10.4151   33.4034 H   0  0  0  0  0  0  0  0  0  0  0  0
   22.3611    6.8660   30.7203 H   0  0  0  0  0  0  0  0  0  0  0  0
   21.0655    3.6147   30.2898 H   0  0  0  0  0  0  0  0  0  0  0  0
   21.7865    4.8826   29.2413 H   0  0  0  0  0  0  0  0  0  0  0  0
   24.5688    7.9358   28.9017 H   0  0  0  0  0  0  0  0  0  0  0  0
   25.1978    7.5795   30.5460 H   0  0  0  0  0  0  0  0  0  0  0  0
   25.8079    6.6558   29.1314 H   0  0  0  0  0  0  0  0  0  0  0  0
   26.2350    5.3549   30.8567 H   0  0  0  0  0  0  0  0  0  0  0  0
   22.3268    2.5402   31.9585 H   0  0  0  0  0  0  0  0  0  0  0  0
   24.0326   -0.0438   33.8962 H   0  0  0  0  0  0  0  0  0  0  0  0
   22.7178    1.0926   33.4422 H   0  0  0  0  0  0  0  0  0  0  0  0
   23.6511    0.2425   32.1644 H   0  0  0  0  0  0  0  0  0  0  0  0
  1  2  1  0  0  0  0
  2  3  1  0  0  0  0
  3  4  1  0  0  0  0
  4 10  1  0  0  0  0
  4  5  2  0  0  0  0
  5  6  1  0  0  0  0
  6  7  2  0  0  0  0
  6 13  1  0  0  0  0
  7  8  1  0  0  0  0
  8  9  2  0  0  0  0
  8 10  1  0  0  0  0
 10 11  1  0  0  0  0
 11 12  3  0  0  0  0
 13 14  1  0  0  0  0
 14 15  2  0  0  0  0
 14 16  1  0  0  0  0
 16 17  1  0  0  0  0
 17 25  2  0  0  0  0
 17 18  1  0  0  0  0
 18 19  1  0  0  0  0
 18 21  2  0  0  0  0
 19 20  1  0  0  0  0
 21 22  1  0  0  0  0
 22 23  1  0  0  0  0
 22 24  2  0  0  0  0
 24 25  1  0  0  0  0
 24 26  1  0  0  0  0
 26 27  1  0  0  0  0
  1 28  1  0  0  0  0
  1 29  1  0  0  0  0
  1 30  1  0  0  0  0
  2 31  1  0  0  0  0
  2 32  1  0  0  0  0
  7 33  1  0  0  0  0
  9 34  1  0  0  0  0
 10 35  1  0  0  0  0
 13 36  1  0  0  0  0
 16 37  1  0  0  0  0
 16 38  1  0  0  0  0
 20 39  1  0  0  0  0
 20 40  1  0  0  0  0
 20 41  1  0  0  0  0
 21 42  1  0  0  0  0
 25 43  1  0  0  0  0
 27 44  1  0  0  0  0
 27 45  1  0  0  0  0
 27 46  1  0  0  0  0
M  END
> <i_m_stars>
0

> <r_user_dG.exp>
-9.675922

$$$$
17124-1
  -OEChem-05162309453D
 Structure written by MMmdl.
 46 47  0     0  0  0  0  0  0999 V2000
   24.0816   12.3916   30.2423 C   0  0  0  0  0  0  0  0  0  0  0  0
   23.3500   11.0657   30.4628 C   0  0  0  0  0  0  0  0  0  0  0  0
   22.2121   11.3274   31.2794 O   0  0  0  0  0  0  0  0  0  0  0  0
   21.4127   10.2773   31.6976 C   0  0  0  0  0  0  0  0  0  0  0  0
   21.7567    9.0266   31.2850 N   0  0  0  0  0  0  0  0  0  0  0  0
   20.9811    7.9971   31.6572 C   0  0  0  0  0  0  0  0  0  0  0  0
   19.8706    8.1421   32.4769 C   0  0  0  0  0  0  0  0  0  0  0  0
   19.5217    9.4143   32.8937 C   0  0  0  0  0  0  0  0  0  0  0  0
   18.3827    9.4958   33.6863 N   0  0  0  0  0  0  0  0  0  0  0  0
   20.2923   10.5202   32.5003 C   0  0  0  0  0  0  0  0  0  0  0  0
   19.9657   11.8905   32.8774 C   0  0  0  0  0  0  0  0  0  0  0  0
   19.7135   12.9814   33.1712 N   0  0  0  0  0  0  0  0  0  0  0  0
   21.4435    6.8153   31.1146 N   0  0  0  0  0  0  0  0  0  0  0  0
   20.8639    5.6146   31.0308 C   0  0  0  0  0  0  0  0  0  0  0  0
   19.7396    5.3500   31.4512 O   0  0  0  0  0  0  0  0  0  0  0  0
   21.6499    4.5466   30.2798 C   0  0  0  0  0  0  0  0  0  0  0  0
   23.0247    4.2587   30.8770 C   0  0  0  0  0  0  0  0  0  0  0  0
   24.1218    5.0797   30.5737 C   0  0  0  0  0  0  0  0  0  0  0  0
   23.8940    6.1755   29.7600 O   0  0  0  0  0  0  0  0  0  0  0  0
   24.9260    7.1419   29.5741 C   0  0  0  0  0  0  0  0  0  0  0  0
   25.3756    4.7488   31.1028 C   0  0  0  0  0  0  0  0  0  0  0  0
   25.5283    3.6468   31.9432 C   0  0  0  0  0  0  0  0  0  0  0  0
   27.2648    3.2511   32.6230 Br  0  0  0  0  0  0  0  0  0  0  0  0
   24.4329    2.8399   32.2701 C   0  0  0  0  0  0  0  0  0  0  0  0
   23.1819    3.1565   31.7231 C   0  0  0  0  0  0  0  0  0  0  0  0
   24.6457    1.7801   33.1306 O   0  0  0  0  0  0  0  0  0  0  0  0
   23.7084    0.7066   33.1601 C   0  0  0  0  0  0  0  0  0  0  0  0
   24.9678   12.2218   29.6132 H   0  0  0  0  0  0  0  0  0  0  0  0
   23.4081   13.1031   29.7422 H   0  0  0  0  0  0  0  0  0  0  0  0
   24.3947   12.8034   31.2131 H   0  0  0  0  0  0  0  0  0  0  0  0
   23.0294   10.6498   29.4962 H   0  0  0  0  0  0  0  0  0  0  0  0
   24.0160   10.3501   30.9671 H   0  0  0  0  0  0  0  0  0  0  0  0
   19.0083    7.7306   31.9319 H   0  0  0  0  0  0  0  0  0  0  0  0
   20.0532    7.5425   33.3808 H   0  0  0  0  0  0  0  0  0  0  0  0
   18.1737   10.4386   33.9459 H   0  0  0  0  0  0  0  0  0  0  0  0
   22.3611    6.8660   30.7203 H   0  0  0  0  0  0  0  0  0  0  0  0
   21.0655    3.6147   30.2898 H   0  0  0  0  0  0  0  0  0  0  0  0
   21.7865    4.8826   29.2413 H   0  0  0  0  0  0  0  0  0  0  0  0
   24.5688    7.9358   28.9017 H   0  0  0  0  0  0  0  0  0  0  0  0
   25.1978    7.5795   30.5460 H   0  0  0  0  0  0  0  0  0  0  0  0
   25.8079    6.6558   29.1314 H   0  0  0  0  0  0  0  0  0  0  0  0
   26.2350    5.3549   30.8567 H   0  0  0  0  0  0  0  0  0  0  0  0
   22.3268    2.5402   31.9585 H   0  0  0  0  0  0  0  0  0  0  0  0
   24.0326   -0.0438   33.8962 H   0  0  0  0  0  0  0  0  0  0  0  0
   22.7178    1.0926   33.4422 H   0  0  0  0  0  0  0  0  0  0  0  0
   23.6511    0.2425   32.1644 H   0  0  0  0  0  0  0  0  0  0  0  0
  1  2  1  0  0  0  0
  2  3  1  0  0  0  0
  3  4  1  0  0  0  0
  4 10  2  0  0  0  0
  4  5  1  0  0  0  0
  5  6  2  0  0  0  0
  6  7  1  0  0  0  0
  6 13  1  0  0  0  0
  7  8  1  0  0  0  0
  8  9  2  0  0  0  0
  8 10  1  0  0  0  0
 10 11  1  0  0  0  0
 11 12  3  0  0  0  0
 13 14  1  0  0  0  0
 14 15  2  0  0  0  0
 14 16  1  0  0  0  0
 16 17  1  0  0  0  0
 17 25  2  0  0  0  0
 17 18  1  0  0  0  0
 18 19  1  0  0  0  0
 18 21  2  0  0  0  0
 19 20  1  0  0  0  0
 21 22  1  0  0  0  0
 22 23  1  0  0  0  0
 22 24  2  0  0  0  0
 24 25  1  0  0  0  0
 24 26  1  0  0  0  0
 26 27  1  0  0  0  0
  1 28  1  0  0  0  0
  1 29  1  0  0  0  0
  1 30  1  0  0  0  0
  2 31  1  0  0  0  0
  2 32  1  0  0  0  0
  7 33  1  0  0  0  0
  7 34  1  0  0  0  0
  9 35  1  0  0  0  0
 13 36  1  0  0  0  0
 16 37  1  0  0  0  0
 16 38  1  0  0  0  0
 20 39  1  0  0  0  0
 20 40  1  0  0  0  0
 20 41  1  0  0  0  0
 21 42  1  0  0  0  0
 25 43  1  0  0  0  0
 27 44  1  0  0  0  0
 27 45  1  0  0  0  0
 27 46  1  0  0  0  0
M  END
> <i_m_stars>
0

> <r_user_dG.exp>
-9.675922

$$$$
17124-1
  -OEChem-05162309453D
 Structure written by MMmdl.
 46 47  0     1  0  0  0  0  0999 V2000
   24.0816   12.3916   30.2423 C   0  0  0  0  0  0  0  0  0  0  0  0
   23.3500   11.0657   30.4628 C   0  0  0  0  0  0  0  0  0  0  0  0
   22.2121   11.3274   31.2794 O   0  0  0  0  0  0  0  0  0  0  0  0
   21.4127   10.2773   31.6976 C   0  0  0  0  0  0  0  0  0  0  0  0
   21.7567    9.0266   31.2850 N   0  0  0  0  0  0  0  0  0  0  0  0
   20.9811    7.9971   31.6572 C   0  0  0  0  0  0  0  0  0  0  0  0
   19.8706    8.1421   32.4769 C   0  0  0  0  0  0  0  0  0  0  0  0
   19.5217    9.4143   32.8937 C   0  0  0  0  0  0  0  0  0  0  0  0
   18.3827    9.4958   33.6863 N   0  0  0  0  0  0  0  0  0  0  0  0
   20.2923   10.5202   32.5003 C   0  0  3  0  0  0  0  0  0  0  0  0
   19.9657   11.8905   32.8774 C   0  0  0  0  0  0  0  0  0  0  0  0
   19.7135   12.9814   33.1712 N   0  0  0  0  0  0  0  0  0  0  0  0
   21.4435    6.8153   31.1146 N   0  0  0  0  0  0  0  0  0  0  0  0
   20.8639    5.6146   31.0308 C   0  0  0  0  0  0  0  0  0  0  0  0
   19.7396    5.3500   31.4512 O   0  0  0  0  0  0  0  0  0  0  0  0
   21.6499    4.5466   30.2798 C   0  0  0  0  0  0  0  0  0  0  0  0
   23.0247    4.2587   30.8770 C   0  0  0  0  0  0  0  0  0  0  0  0
   24.1218    5.0797   30.5737 C   0  0  0  0  0  0  0  0  0  0  0  0
   23.8940    6.1755   29.7600 O   0  0  0  0  0  0  0  0  0  0  0  0
   24.9260    7.1419   29.5741 C   0  0  0  0  0  0  0  0  0  0  0  0
   25.3756    4.7488   31.1028 C   0  0  0  0  0  0  0  0  0  0  0  0
   25.5283    3.6468   31.9432 C   0  0  0  0  0  0  0  0  0  0  0  0
   27.2648    3.2511   32.6230 Br  0  0  0  0  0  0  0  0  0  0  0  0
   24.4329    2.8399   32.2701 C   0  0  0  0  0  0  0  0  0  0  0  0
   23.1819    3.1565   31.7231 C   0  0  0  0  0  0  0  0  0  0  0  0
   24.6457    1.7801   33.1306 O   0  0  0  0  0  0  0  0  0  0  0  0
   23.7084    0.7066   33.1601 C   0  0  0  0  0  0  0  0  0  0  0  0
   24.9678   12.2218   29.6132 H   0  0  0  0  0  0  0  0  0  0  0  0
   23.4081   13.1031   29.7422 H   0  0  0  0  0  0  0  0  0  0  0  0
   24.3947   12.8034   31.2131 H   0  0  0  0  0  0  0  0  0  0  0  0
   23.0294   10.6498   29.4962 H   0  0  0  0  0  0  0  0  0  0  0  0
   24.0160   10.3501   30.9671 H   0  0  0  0  0  0  0  0  0  0  0  0
   19.2926    7.2823   32.7821 H   0  0  0  0  0  0  0  0  0  0  0  0
   18.2159   10.4502   33.9339 H   0  0  0  0  0  0  0  0  0  0  0  0
   17.5975    9.1411   33.1788 H   0  0  0  0  0  0  0  0  0  0  0  0
   20.9115   10.4151   33.4034 H   0  0  0  0  0  0  0  0  0  0  0  0
   21.0655    3.6147   30.2898 H   0  0  0  0  0  0  0  0  0  0  0  0
   21.7865    4.8826   29.2413 H   0  0  0  0  0  0  0  0  0  0  0  0
   24.5688    7.9358   28.9017 H   0  0  0  0  0  0  0  0  0  0  0  0
   25.1978    7.5795   30.5460 H   0  0  0  0  0  0  0  0  0  0  0  0
   25.8079    6.6558   29.1314 H   0  0  0  0  0  0  0  0  0  0  0  0
   26.2350    5.3549   30.8567 H   0  0  0  0  0  0  0  0  0  0  0  0
   22.3268    2.5402   31.9585 H   0  0  0  0  0  0  0  0  0  0  0  0
   24.0326   -0.0438   33.8962 H   0  0  0  0  0  0  0  0  0  0  0  0
   22.7178    1.0926   33.4422 H   0  0  0  0  0  0  0  0  0  0  0  0
   23.6511    0.2425   32.1644 H   0  0  0  0  0  0  0  0  0  0  0  0
  1  2  1  0  0  0  0
  2  3  1  0  0  0  0
  3  4  1  0  0  0  0
  4 10  1  0  0  0  0
  4  5  2  0  0  0  0
  5  6  1  0  0  0  0
  6  7  1  0  0  0  0
  6 13  2  0  0  0  0
  7  8  2  0  0  0  0
  8  9  1  0  0  0  0
  8 10  1  0  0  0  0
 10 11  1  0  0  0  0
 11 12  3  0  0  0  0
 13 14  1  0  0  0  0
 14 15  2  0  0  0  0
 14 16  1  0  0  0  0
 16 17  1  0  0  0  0
 17 25  2  0  0  0  0
 17 18  1  0  0  0  0
 18 19  1  0  0  0  0
 18 21  2  0  0  0  0
 19 20  1  0  0  0  0
 21 22  1  0  0  0  0
 22 23  1  0  0  0  0
 22 24  2  0  0  0  0
 24 25  1  0  0  0  0
 24 26  1  0  0  0  0
 26 27  1  0  0  0  0
  1 28  1  0  0  0  0
  1 29  1  0  0  0  0
  1 30  1  0  0  0  0
  2 31  1  0  0  0  0
  2 32  1  0  0  0  0
  7 33  1  0  0  0  0
  9 34  1  0  0  0  0
  9 35  1  0  0  0  0
 10 36  1  0  0  0  0
 16 37  1  0  0  0  0
 16 38  1  0  0  0  0
 20 39  1  0  0  0  0
 20 40  1  0  0  0  0
 20 41  1  0  0  0  0
 21 42  1  0  0  0  0
 25 43  1  0  0  0  0
 27 44  1  0  0  0  0
 27 45  1  0  0  0  0
 27 46  1  0  0  0  0
M  END
> <i_m_stars>
0

> <r_user_dG.exp>
-9.675922

$$$$
17124-1
  -OEChem-05162309453D
 Structure written by MMmdl.
 46 47  0     0  0  0  0  0  0999 V2000
   24.0816   12.3916   30.2423 C   0  0  0  0  0  0  0  0  0  0  0  0
   23.3500   11.0657   30.4628 C   0  0  0  0  0  0  0  0  0  0  0  0
   22.2121   11.3274   31.2794 O   0  0  0  0  0  0  0  0  0  0  0  0
   21.4127   10.2773   31.6976 C   0  0  0  0  0  0  0  0  0  0  0  0
   21.7567    9.0266   31.2850 N   0  0  0  0  0  0  0  0  0  0  0  0
   20.9811    7.9971   31.6572 C   0  0  0  0  0  0  0  0  0  0  0  0
   19.8706    8.1421   32.4769 C   0  0  0  0  0  0  0  0  0  0  0  0
   19.5217    9.4143   32.8937 C   0  0  0  0  0  0  0  0  0  0  0  0
   18.3827    9.4958   33.6863 N   0  0  0  0  0  0  0  0  0  0  0  0
   20.2923   10.5202   32.5003 C   0  0  0  0  0  0  0  0  0  0  0  0
   19.9657   11.8905   32.8774 C   0  0  0  0  0  0  0  0  0  0  0  0
   19.7135   12.9814   33.1712 N   0  0  0  0  0  0  0  0  0  0  0  0
   21.4435    6.8153   31.1146 N   0  0  0  0  0  0  0  0  0  0  0  0
   20.8639    5.6146   31.0308 C   0  0  0  0  0  0  0  0  0  0  0  0
   19.7396    5.3500   31.4512 O   0  0  0  0  0  0  0  0  0  0  0  0
   21.6499    4.5466   30.2798 C   0  0  0  0  0  0  0  0  0  0  0  0
   23.0247    4.2587   30.8770 C   0  0  0  0  0  0  0  0  0  0  0  0
   24.1218    5.0797   30.5737 C   0  0  0  0  0  0  0  0  0  0  0  0
   23.8940    6.1755   29.7600 O   0  0  0  0  0  0  0  0  0  0  0  0
   24.9260    7.1419   29.5741 C   0  0  0  0  0  0  0  0  0  0  0  0
   25.3756    4.7488   31.1028 C   0  0  0  0  0  0  0  0  0  0  0  0
   25.5283    3.6468   31.9432 C   0  0  0  0  0  0  0  0  0  0  0  0
   27.2648    3.2511   32.6230 Br  0  0  0  0  0  0  0  0  0  0  0  0
   24.4329    2.8399   32.2701 C   0  0  0  0  0  0  0  0  0  0  0  0
   23.1819    3.1565   31.7231 C   0  0  0  0  0  0  0  0  0  0  0  0
   24.6457    1.7801   33.1306 O   0  0  0  0  0  0  0  0  0  0  0  0
   23.7084    0.7066   33.1601 C   0  0  0  0  0  0  0  0  0  0  0  0
   24.9678   12.2218   29.6132 H   0  0  0  0  0  0  0  0  0  0  0  0
   23.4081   13.1031   29.7422 H   0  0  0  0  0  0  0  0  0  0  0  0
   24.3947   12.8034   31.2131 H   0  0  0  0  0  0  0  0  0  0  0  0
   23.0294   10.6498   29.4962 H   0  0  0  0  0  0  0  0  0  0  0  0
   24.0160   10.3501   30.9671 H   0  0  0  0  0  0  0  0  0  0  0  0
   19.0083    7.7306   31.9319 H   0  0  0  0  0  0  0  0  0  0  0  0
   20.0532    7.5425   33.3808 H   0  0  0  0  0  0  0  0  0  0  0  0
   18.2159   10.4502   33.9339 H   0  0  0  0  0  0  0  0  0  0  0  0
   17.5975    9.1411   33.1788 H   0  0  0  0  0  0  0  0  0  0  0  0
   21.0655    3.6147   30.2898 H   0  0  0  0  0  0  0  0  0  0  0  0
   21.7865    4.8826   29.2413 H   0  0  0  0  0  0  0  0  0  0  0  0
   24.5688    7.9358   28.9017 H   0  0  0  0  0  0  0  0  0  0  0  0
   25.1978    7.5795   30.5460 H   0  0  0  0  0  0  0  0  0  0  0  0
   25.8079    6.6558   29.1314 H   0  0  0  0  0  0  0  0  0  0  0  0
   26.2350    5.3549   30.8567 H   0  0  0  0  0  0  0  0  0  0  0  0
   22.3268    2.5402   31.9585 H   0  0  0  0  0  0  0  0  0  0  0  0
   24.0326   -0.0438   33.8962 H   0  0  0  0  0  0  0  0  0  0  0  0
   22.7178    1.0926   33.4422 H   0  0  0  0  0  0  0  0  0  0  0  0
   23.6511    0.2425   32.1644 H   0  0  0  0  0  0  0  0  0  0  0  0
  1  2  1  0  0  0  0
  2  3  1  0  0  0  0
  3  4  1  0  0  0  0
  4 10  1  0  0  0  0
  4  5  2  0  0  0  0
  5  6  1  0  0  0  0
  6  7  1  0  0  0  0
  6 13  2  0  0  0  0
  7  8  1  0  0  0  0
  8  9  1  0  0  0  0
  8 10  2  0  0  0  0
 10 11  1  0  0  0  0
 11 12  3  0  0  0  0
 13 14  1  0  0  0  0
 14 15  2  0  0  0  0
 14 16  1  0  0  0  0
 16 17  1  0  0  0  0
 17 25  2  0  0  0  0
 17 18  1  0  0  0  0
 18 19  1  0  0  0  0
 18 21  2  0  0  0  0
 19 20  1  0  0  0  0
 21 22  1  0  0  0  0
 22 23  1  0  0  0  0
 22 24  2  0  0  0  0
 24 25  1  0  0  0  0
 24 26  1  0  0  0  0
 26 27  1  0  0  0  0
  1 28  1  0  0  0  0
  1 29  1  0  0  0  0
  1 30  1  0  0  0  0
  2 31  1  0  0  0  0
  2 32  1  0  0  0  0
  7 33  1  0  0  0  0
  7 34  1  0  0  0  0
  9 35  1  0  0  0  0
  9 36  1  0  0  0  0
 16 37  1  0  0  0  0
 16 38  1  0  0  0  0
 20 39  1  0  0  0  0
 20 40  1  0  0  0  0
 20 41  1  0  0  0  0
 21 42  1  0  0  0  0
 25 43  1  0  0  0  0
 27 44  1  0  0  0  0
 27 45  1  0  0  0  0
 27 46  1  0  0  0  0
M  END
> <i_m_stars>
0

> <r_user_dG.exp>
-9.675922

$$$$
17124-1
  -OEChem-05162309453D
 Structure written by MMmdl.
 46 47  0     0  0  0  0  0  0999 V2000
   24.0816   12.3916   30.2423 C   0  0  0  0  0  0  0  0  0  0  0  0
   23.3500   11.0657   30.4628 C   0  0  0  0  0  0  0  0  0  0  0  0
   22.2121   11.3274   31.2794 O   0  0  0  0  0  0  0  0  0  0  0  0
   21.4127   10.2773   31.6976 C   0  0  0  0  0  0  0  0  0  0  0  0
   21.7567    9.0266   31.2850 N   0  0  0  0  0  0  0  0  0  0  0  0
   20.9811    7.9971   31.6572 C   0  0  0  0  0  0  0  0  0  0  0  0
   19.8706    8.1421   32.4769 C   0  0  0  0  0  0  0  0  0  0  0  0
   19.5217    9.4143   32.8937 C   0  0  0  0  0  0  0  0  0  0  0  0
   18.3827    9.4958   33.6863 N   0  0  0  0  0  0  0  0  0  0  0  0
   20.2923   10.5202   32.5003 C   0  0  0  0  0  0  0  0  0  0  0  0
   19.9657   11.8905   32.8774 C   0  0  0  0  0  0  0  0  0  0  0  0
   19.7135   12.9814   33.1712 N   0  0  0  0  0  0  0  0  0  0  0  0
   21.4435    6.8153   31.1146 N   0  0  0  0  0  0  0  0  0  0  0  0
   20.8639    5.6146   31.0308 C   0  0  0  0  0  0  0  0  0  0  0  0
   19.7396    5.3500   31.4512 O   0  0  0  0  0  0  0  0  0  0  0  0
   21.6499    4.5466   30.2798 C   0  0  0  0  0  0  0  0  0  0  0  0
   23.0247    4.2587   30.8770 C   0  0  0  0  0  0  0  0  0  0  0  0
   24.1218    5.0797   30.5737 C   0  0  0  0  0  0  0  0  0  0  0  0
   23.8940    6.1755   29.7600 O   0  0  0  0  0  0  0  0  0  0  0  0
   24.9260    7.1419   29.5741 C   0  0  0  0  0  0  0  0  0  0  0  0
   25.3756    4.7488   31.1028 C   0  0  0  0  0  0  0  0  0  0  0  0
   25.5283    3.6468   31.9432 C   0  0  0  0  0  0  0  0  0  0  0  0
   27.2648    3.2511   32.6230 Br  0  0  0  0  0  0  0  0  0  0  0  0
   24.4329    2.8399   32.2701 C   0  0  0  0  0  0  0  0  0  0  0  0
   23.1819    3.1565   31.7231 C   0  0  0  0  0  0  0  0  0  0  0  0
   24.6457    1.7801   33.1306 O   0  0  0  0  0  0  0  0  0  0  0  0
   23.7084    0.7066   33.1601 C   0  0  0  0  0  0  0  0  0  0  0  0
   24.9678   12.2218   29.6132 H   0  0  0  0  0  0  0  0  0  0  0  0
   23.4081   13.1031   29.7422 H   0  0  0  0  0  0  0  0  0  0  0  0
   24.3947   12.8034   31.2131 H   0  0  0  0  0  0  0  0  0  0  0  0
   23.0294   10.6498   29.4962 H   0  0  0  0  0  0  0  0  0  0  0  0
   24.0160   10.3501   30.9671 H   0  0  0  0  0  0  0  0  0  0  0  0
   22.5674    8.8788   30.7185 H   0  0  0  0  0  0  0  0  0  0  0  0
   19.0083    7.7306   31.9319 H   0  0  0  0  0  0  0  0  0  0  0  0
   20.0532    7.5425   33.3808 H   0  0  0  0  0  0  0  0  0  0  0  0
   18.1737   10.4386   33.9459 H   0  0  0  0  0  0  0  0  0  0  0  0
   21.0655    3.6147   30.2898 H   0  0  0  0  0  0  0  0  0  0  0  0
   21.7865    4.8826   29.2413 H   0  0  0  0  0  0  0  0  0  0  0  0
   24.5688    7.9358   28.9017 H   0  0  0  0  0  0  0  0  0  0  0  0
   25.1978    7.5795   30.5460 H   0  0  0  0  0  0  0  0  0  0  0  0
   25.8079    6.6558   29.1314 H   0  0  0  0  0  0  0  0  0  0  0  0
   26.2350    5.3549   30.8567 H   0  0  0  0  0  0  0  0  0  0  0  0
   22.3268    2.5402   31.9585 H   0  0  0  0  0  0  0  0  0  0  0  0
   24.0326   -0.0438   33.8962 H   0  0  0  0  0  0  0  0  0  0  0  0
   22.7178    1.0926   33.4422 H   0  0  0  0  0  0  0  0  0  0  0  0
   23.6511    0.2425   32.1644 H   0  0  0  0  0  0  0  0  0  0  0  0
  1  2  1  0  0  0  0
  2  3  1  0  0  0  0
  3  4  1  0  0  0  0
  4 10  2  0  0  0  0
  4  5  1  0  0  0  0
  5  6  1  0  0  0  0
  6  7  1  0  0  0  0
  6 13  2  0  0  0  0
  7  8  1  0  0  0  0
  8  9  2  0  0  0  0
  8 10  1  0  0  0  0
 10 11  1  0  0  0  0
 11 12  3  0  0  0  0
 13 14  1  0  0  0  0
 14 15  2  0  0  0  0
 14 16  1  0  0  0  0
 16 17  1  0  0  0  0
 17 25  2  0  0  0  0
 17 18  1  0  0  0  0
 18 19  1  0  0  0  0
 18 21  2  0  0  0  0
 19 20  1  0  0  0  0
 21 22  1  0  0  0  0
 22 23  1  0  0  0  0
 22 24  2  0  0  0  0
 24 25  1  0  0  0  0
 24 26  1  0  0  0  0
 26 27  1  0  0  0  0
  1 28  1  0  0  0  0
  1 29  1  0  0  0  0
  1 30  1  0  0  0  0
  2 31  1  0  0  0  0
  2 32  1  0  0  0  0
  5 33  1  0  0  0  0
  7 34  1  0  0  0  0
  7 35  1  0  0  0  0
  9 36  1  0  0  0  0
 16 37  1  0  0  0  0
 16 38  1  0  0  0  0
 20 39  1  0  0  0  0
 20 40  1  0  0  0  0
 20 41  1  0  0  0  0
 21 42  1  0  0  0  0
 25 43  1  0  0  0  0
 27 44  1  0  0  0  0
 27 45  1  0  0  0  0
 27 46  1  0  0  0  0
M  END
> <i_m_stars>
0

> <r_user_dG.exp>
-9.675922

$$$$
17124-1
  -OEChem-05162309453D
 Structure written by MMmdl.
 46 47  0     1  0  0  0  0  0999 V2000
   24.0816   12.3916   30.2423 C   0  0  0  0  0  0  0  0  0  0  0  0
   23.3500   11.0657   30.4628 C   0  0  0  0  0  0  0  0  0  0  0  0
   22.2121   11.3274   31.2794 O   0  0  0  0  0  0  0  0  0  0  0  0
   21.4127   10.2773   31.6976 C   0  0  0  0  0  0  0  0  0  0  0  0
   21.7567    9.0266   31.2850 N   0  0  0  0  0  0  0  0  0  0  0  0
   20.9811    7.9971   31.6572 C   0  0  0  0  0  0  0  0  0  0  0  0
   19.8706    8.1421   32.4769 C   0  0  0  0  0  0  0  0  0  0  0  0
   19.5217    9.4143   32.8937 C   0  0  0  0  0  0  0  0  0  0  0  0
   18.3827    9.4958   33.6863 N   0  0  0  0  0  0  0  0  0  0  0  0
   20.2923   10.5202   32.5003 C   0  0  3  0  0  0  0  0  0  0  0  0
   19.9657   11.8905   32.8774 C   0  0  0  0  0  0  0  0  0  0  0  0
   19.7135   12.9814   33.1712 N   0  0  0  0  0  0  0  0  0  0  0  0
   21.4435    6.8153   31.1146 N   0  0  0  0  0  0  0  0  0  0  0  0
   20.8639    5.6146   31.0308 C   0  0  0  0  0  0  0  0  0  0  0  0
   19.7396    5.3500   31.4512 O   0  0  0  0  0  0  0  0  0  0  0  0
   21.6499    4.5466   30.2798 C   0  0  0  0  0  0  0  0  0  0  0  0
   23.0247    4.2587   30.8770 C   0  0  0  0  0  0  0  0  0  0  0  0
   24.1218    5.0797   30.5737 C   0  0  0  0  0  0  0  0  0  0  0  0
   23.8940    6.1755   29.7600 O   0  0  0  0  0  0  0  0  0  0  0  0
   24.9260    7.1419   29.5741 C   0  0  0  0  0  0  0  0  0  0  0  0
   25.3756    4.7488   31.1028 C   0  0  0  0  0  0  0  0  0  0  0  0
   25.5283    3.6468   31.9432 C   0  0  0  0  0  0  0  0  0  0  0  0
   27.2648    3.2511   32.6230 Br  0  0  0  0  0  0  0  0  0  0  0  0
   24.4329    2.8399   32.2701 C   0  0  0  0  0  0  0  0  0  0  0  0
   23.1819    3.1565   31.7231 C   0  0  0  0  0  0  0  0  0  0  0  0
   24.6457    1.7801   33.1306 O   0  0  0  0  0  0  0  0  0  0  0  0
   23.7084    0.7066   33.1601 C   0  0  0  0  0  0  0  0  0  0  0  0
   24.9678   12.2218   29.6132 H   0  0  0  0  0  0  0  0  0  0  0  0
   23.4081   13.1031   29.7422 H   0  0  0  0  0  0  0  0  0  0  0  0
   24.3947   12.8034   31.2131 H   0  0  0  0  0  0  0  0  0  0  0  0
   23.0294   10.6498   29.4962 H   0  0  0  0  0  0  0  0  0  0  0  0
   24.0160   10.3501   30.9671 H   0  0  0  0  0  0  0  0  0  0  0  0
   19.2926    7.2823   32.7821 H   0  0  0  0  0  0  0  0  0  0  0  0
   18.1737   10.4386   33.9459 H   0  0  0  0  0  0  0  0  0  0  0  0
   20.9115   10.4151   33.4034 H   0  0  0  0  0  0  0  0  0  0  0  0
   19.5437    4.4364   31.2795 H   0  0  0  0  0  0  0  0  0  0  0  0
   21.0655    3.6147   30.2898 H   0  0  0  0  0  0  0  0  0  0  0  0
   21.7865    4.8826   29.2413 H   0  0  0  0  0  0  0  0  0  0  0  0
   24.5688    7.9358   28.9017 H   0  0  0  0  0  0  0  0  0  0  0  0
   25.1978    7.5795   30.5460 H   0  0  0  0  0  0  0  0  0  0  0  0
   25.8079    6.6558   29.1314 H   0  0  0  0  0  0  0  0  0  0  0  0
   26.2350    5.3549   30.8567 H   0  0  0  0  0  0  0  0  0  0  0  0
   22.3268    2.5402   31.9585 H   0  0  0  0  0  0  0  0  0  0  0  0
   24.0326   -0.0438   33.8962 H   0  0  0  0  0  0  0  0  0  0  0  0
   22.7178    1.0926   33.4422 H   0  0  0  0  0  0  0  0  0  0  0  0
   23.6511    0.2425   32.1644 H   0  0  0  0  0  0  0  0  0  0  0  0
  1  2  1  0  0  0  0
  2  3  1  0  0  0  0
  3  4  1  0  0  0  0
  4 10  1  0  0  0  0
  4  5  2  0  0  0  0
  5  6  1  0  0  0  0
  6  7  2  0  0  0  0
  6 13  1  0  0  0  0
  7  8  1  0  0  0  0
  8  9  2  0  0  0  0
  8 10  1  0  0  0  0
 10 11  1  0  0  0  0
 11 12  3  0  0  0  0
 13 14  2  0  0  0  0
 14 15  1  0  0  0  0
 14 16  1  0  0  0  0
 16 17  1  0  0  0  0
 17 25  2  0  0  0  0
 17 18  1  0  0  0  0
 18 19  1  0  0  0  0
 18 21  2  0  0  0  0
 19 20  1  0  0  0  0
 21 22  1  0  0  0  0
 22 23  1  0  0  0  0
 22 24  2  0  0  0  0
 24 25  1  0  0  0  0
 24 26  1  0  0  0  0
 26 27  1  0  0  0  0
  1 28  1  0  0  0  0
  1 29  1  0  0  0  0
  1 30  1  0  0  0  0
  2 31  1  0  0  0  0
  2 32  1  0  0  0  0
  7 33  1  0  0  0  0
  9 34  1  0  0  0  0
 10 35  1  0  0  0  0
 15 36  1  0  0  0  0
 16 37  1  0  0  0  0
 16 38  1  0  0  0  0
 20 39  1  0  0  0  0
 20 40  1  0  0  0  0
 20 41  1  0  0  0  0
 21 42  1  0  0  0  0
 25 43  1  0  0  0  0
 27 44  1  0  0  0  0
 27 45  1  0  0  0  0
 27 46  1  0  0  0  0
M  END
> <i_m_stars>
0

> <r_user_dG.exp>
-9.675922

$$$$
17124-1
  -OEChem-05162309453D
 Structure written by MMmdl.
 46 47  0     0  0  0  0  0  0999 V2000
   24.0816   12.3916   30.2423 C   0  0  0  0  0  0  0  0  0  0  0  0
   23.3500   11.0657   30.4628 C   0  0  0  0  0  0  0  0  0  0  0  0
   22.2121   11.3274   31.2794 O   0  0  0  0  0  0  0  0  0  0  0  0
   21.4127   10.2773   31.6976 C   0  0  0  0  0  0  0  0  0  0  0  0
   21.7567    9.0266   31.2850 N   0  0  0  0  0  0  0  0  0  0  0  0
   20.9811    7.9971   31.6572 C   0  0  0  0  0  0  0  0  0  0  0  0
   19.8706    8.1421   32.4769 C   0  0  0  0  0  0  0  0  0  0  0  0
   19.5217    9.4143   32.8937 C   0  0  0  0  0  0  0  0  0  0  0  0
   18.3827    9.4958   33.6863 N   0  0  0  0  0  0  0  0  0  0  0  0
   20.2923   10.5202   32.5003 C   0  0  0  0  0  0  0  0  0  0  0  0
   19.9657   11.8905   32.8774 C   0  0  0  0  0  0  0  0  0  0  0  0
   19.7135   12.9814   33.1712 N   0  0  0  0  0  0  0  0  0  0  0  0
   21.4435    6.8153   31.1146 N   0  0  0  0  0  0  0  0  0  0  0  0
   20.8639    5.6146   31.0308 C   0  0  0  0  0  0  0  0  0  0  0  0
   19.7396    5.3500   31.4512 O   0  0  0  0  0  0  0  0  0  0  0  0
   21.6499    4.5466   30.2798 C   0  0  0  0  0  0  0  0  0  0  0  0
   23.0247    4.2587   30.8770 C   0  0  0  0  0  0  0  0  0  0  0  0
   24.1218    5.0797   30.5737 C   0  0  0  0  0  0  0  0  0  0  0  0
   23.8940    6.1755   29.7600 O   0  0  0  0  0  0  0  0  0  0  0  0
   24.9260    7.1419   29.5741 C   0  0  0  0  0  0  0  0  0  0  0  0
   25.3756    4.7488   31.1028 C   0  0  0  0  0  0  0  0  0  0  0  0
   25.5283    3.6468   31.9432 C   0  0  0  0  0  0  0  0  0  0  0  0
   27.2648    3.2511   32.6230 Br  0  0  0  0  0  0  0  0  0  0  0  0
   24.4329    2.8399   32.2701 C   0  0  0  0  0  0  0  0  0  0  0  0
   23.1819    3.1565   31.7231 C   0  0  0  0  0  0  0  0  0  0  0  0
   24.6457    1.7801   33.1306 O   0  0  0  0  0  0  0  0  0  0  0  0
   23.7084    0.7066   33.1601 C   0  0  0  0  0  0  0  0  0  0  0  0
   24.9678   12.2218   29.6132 H   0  0  0  0  0  0  0  0  0  0  0  0
   23.4081   13.1031   29.7422 H   0  0  0  0  0  0  0  0  0  0  0  0
   24.3947   12.8034   31.2131 H   0  0  0  0  0  0  0  0  0  0  0  0
   23.0294   10.6498   29.4962 H   0  0  0  0  0  0  0  0  0  0  0  0
   24.0160   10.3501   30.9671 H   0  0  0  0  0  0  0  0  0  0  0  0
   19.0083    7.7306   31.9319 H   0  0  0  0  0  0  0  0  0  0  0  0
   20.0532    7.5425   33.3808 H   0  0  0  0  0  0  0  0  0  0  0  0
   18.1737   10.4386   33.9459 H   0  0  0  0  0  0  0  0  0  0  0  0
   19.5437    4.4364   31.2795 H   0  0  0  0  0  0  0  0  0  0  0  0
   21.0655    3.6147   30.2898 H   0  0  0  0  0  0  0  0  0  0  0  0
   21.7865    4.8826   29.2413 H   0  0  0  0  0  0  0  0  0  0  0  0
   24.5688    7.9358   28.9017 H   0  0  0  0  0  0  0  0  0  0  0  0
   25.1978    7.5795   30.5460 H   0  0  0  0  0  0  0  0  0  0  0  0
   25.8079    6.6558   29.1314 H   0  0  0  0  0  0  0  0  0  0  0  0
   26.2350    5.3549   30.8567 H   0  0  0  0  0  0  0  0  0  0  0  0
   22.3268    2.5402   31.9585 H   0  0  0  0  0  0  0  0  0  0  0  0
   24.0326   -0.0438   33.8962 H   0  0  0  0  0  0  0  0  0  0  0  0
   22.7178    1.0926   33.4422 H   0  0  0  0  0  0  0  0  0  0  0  0
   23.6511    0.2425   32.1644 H   0  0  0  0  0  0  0  0  0  0  0  0
  1  2  1  0  0  0  0
  2  3  1  0  0  0  0
  3  4  1  0  0  0  0
  4 10  2  0  0  0  0
  4  5  1  0  0  0  0
  5  6  2  0  0  0  0
  6  7  1  0  0  0  0
  6 13  1  0  0  0  0
  7  8  1  0  0  0  0
  8  9  2  0  0  0  0
  8 10  1  0  0  0  0
 10 11  1  0  0  0  0
 11 12  3  0  0  0  0
 13 14  2  0  0  0  0
 14 15  1  0  0  0  0
 14 16  1  0  0  0  0
 16 17  1  0  0  0  0
 17 25  2  0  0  0  0
 17 18  1  0  0  0  0
 18 19  1  0  0  0  0
 18 21  2  0  0  0  0
 19 20  1  0  0  0  0
 21 22  1  0  0  0  0
 22 23  1  0  0  0  0
 22 24  2  0  0  0  0
 24 25  1  0  0  0  0
 24 26  1  0  0  0  0
 26 27  1  0  0  0  0
  1 28  1  0  0  0  0
  1 29  1  0  0  0  0
  1 30  1  0  0  0  0
  2 31  1  0  0  0  0
  2 32  1  0  0  0  0
  7 33  1  0  0  0  0
  7 34  1  0  0  0  0
  9 35  1  0  0  0  0
 15 36  1  0  0  0  0
 16 37  1  0  0  0  0
 16 38  1  0  0  0  0
 20 39  1  0  0  0  0
 20 40  1  0  0  0  0
 20 41  1  0  0  0  0
 21 42  1  0  0  0  0
 25 43  1  0  0  0  0
 27 44  1  0  0  0  0
 27 45  1  0  0  0  0
 27 46  1  0  0  0  0
M  END
> <i_m_stars>
0

> <r_user_dG.exp>
-9.675922

$$$$
