18639-1
  -OEChem-05162309453D
 Structure written by MMmdl.
 48 49  0     0  0  0  0  0  0999 V2000
   24.2764   10.8583   30.5311 C   0  0  0  0  0  0  0  0  0  0  0  0
   22.8724   11.1948   30.0242 C   0  0  0  0  0  0  0  0  0  0  0  0
   21.9935   11.3729   31.1346 O   0  0  0  0  0  0  0  0  0  0  0  0
   21.3005   10.2943   31.6577 C   0  0  0  0  0  0  0  0  0  0  0  0
   21.6713    9.0502   31.2482 N   0  0  0  0  0  0  0  0  0  0  0  0
   20.9501    8.0000   31.6666 C   0  0  0  0  0  0  0  0  0  0  0  0
   19.8665    8.1184   32.5257 C   0  0  0  0  0  0  0  0  0  0  0  0
   19.4926    9.3843   32.9417 C   0  0  0  0  0  0  0  0  0  0  0  0
   18.3660    9.4440   33.7525 N   0  0  0  0  0  0  0  0  0  0  0  0
   20.2180   10.5087   32.5170 C   0  0  0  0  0  0  0  0  0  0  0  0
   19.8684   11.8729   32.8958 C   0  0  0  0  0  0  0  0  0  0  0  0
   19.5992   12.9596   33.1898 N   0  0  0  0  0  0  0  0  0  0  0  0
   21.4272    6.8285   31.1136 N   0  0  0  0  0  0  0  0  0  0  0  0
   20.8583    5.6230   31.0220 C   0  0  0  0  0  0  0  0  0  0  0  0
   19.7390    5.3452   31.4465 O   0  0  0  0  0  0  0  0  0  0  0  0
   21.6500    4.5669   30.2607 C   0  0  0  0  0  0  0  0  0  0  0  0
   23.0147    4.2719   30.8751 C   0  0  0  0  0  0  0  0  0  0  0  0
   24.1184    5.0810   30.5810 C   0  0  0  0  0  0  0  0  0  0  0  0
   23.9097    6.1670   29.7482 O   0  0  0  0  0  0  0  0  0  0  0  0
   24.9546    7.1169   29.5477 C   0  0  0  0  0  0  0  0  0  0  0  0
   25.3567    4.7546   31.1456 C   0  0  0  0  0  0  0  0  0  0  0  0
   25.5076    3.6737   32.0309 C   0  0  0  0  0  0  0  0  0  0  0  0
   26.8469    3.4094   32.6231 N   0  3  0  0  0  0  0  0  0  0  0  0
   26.9382    2.7388   33.6465 O   0  0  0  0  0  0  0  0  0  0  0  0
   27.8303    3.9025   32.0768 O   0  5  0  0  0  0  0  0  0  0  0  0
   24.3855    2.8726   32.3281 C   0  0  0  0  0  0  0  0  0  0  0  0
   23.1530    3.1840   31.7378 C   0  0  0  0  0  0  0  0  0  0  0  0
   24.5282    1.8156   33.2068 O   0  0  0  0  0  0  0  0  0  0  0  0
   23.6287    0.7111   33.1397 C   0  0  0  0  0  0  0  0  0  0  0  0
   24.9529   10.7212   29.6747 H   0  0  0  0  0  0  0  0  0  0  0  0
   24.6453   11.6807   31.1617 H   0  0  0  0  0  0  0  0  0  0  0  0
   24.2404    9.9311   31.1218 H   0  0  0  0  0  0  0  0  0  0  0  0
   22.9087   12.1220   29.4334 H   0  0  0  0  0  0  0  0  0  0  0  0
   22.5038   10.3724   29.3935 H   0  0  0  0  0  0  0  0  0  0  0  0
   19.3284    7.2442   32.8613 H   0  0  0  0  0  0  0  0  0  0  0  0
   18.1807   10.3958   33.9969 H   0  0  0  0  0  0  0  0  0  0  0  0
   17.5811    9.0674   33.2605 H   0  0  0  0  0  0  0  0  0  0  0  0
   22.3439    6.8922   30.7190 H   0  0  0  0  0  0  0  0  0  0  0  0
   21.0651    3.6354   30.2472 H   0  0  0  0  0  0  0  0  0  0  0  0
   21.8008    4.9201   29.2299 H   0  0  0  0  0  0  0  0  0  0  0  0
   24.6089    7.9035   28.8608 H   0  0  0  0  0  0  0  0  0  0  0  0
   25.2301    7.5678   30.5125 H   0  0  0  0  0  0  0  0  0  0  0  0
   25.8310    6.6119   29.1154 H   0  0  0  0  0  0  0  0  0  0  0  0
   26.2213    5.3507   30.8936 H   0  0  0  0  0  0  0  0  0  0  0  0
   22.2923    2.5690   31.9553 H   0  0  0  0  0  0  0  0  0  0  0  0
   23.8955   -0.0271   33.9104 H   0  0  0  0  0  0  0  0  0  0  0  0
   22.6011    1.0644   33.3106 H   0  0  0  0  0  0  0  0  0  0  0  0
   23.6953    0.2440   32.1460 H   0  0  0  0  0  0  0  0  0  0  0  0
  1  2  1  0  0  0  0
  2  3  1  0  0  0  0
  3  4  1  0  0  0  0
  4 10  2  0  0  0  0
  4  5  1  0  0  0  0
  5  6  2  0  0  0  0
  6  7  1  0  0  0  0
  6 13  1  0  0  0  0
  7  8  2  0  0  0  0
  8  9  1  0  0  0  0
  8 10  1  0  0  0  0
 10 11  1  0  0  0  0
 11 12  3  0  0  0  0
 13 14  1  0  0  0  0
 14 15  2  0  0  0  0
 14 16  1  0  0  0  0
 16 17  1  0  0  0  0
 17 27  2  0  0  0  0
 17 18  1  0  0  0  0
 18 19  1  0  0  0  0
 18 21  2  0  0  0  0
 19 20  1  0  0  0  0
 21 22  1  0  0  0  0
 22 23  1  0  0  0  0
 22 26  2  0  0  0  0
 23 24  2  0  0  0  0
 23 25  1  0  0  0  0
 26 27  1  0  0  0  0
 26 28  1  0  0  0  0
 28 29  1  0  0  0  0
  1 30  1  0  0  0  0
  1 31  1  0  0  0  0
  1 32  1  0  0  0  0
  2 33  1  0  0  0  0
  2 34  1  0  0  0  0
  7 35  1  0  0  0  0
  9 36  1  0  0  0  0
  9 37  1  0  0  0  0
 13 38  1  0  0  0  0
 16 39  1  0  0  0  0
 16 40  1  0  0  0  0
 20 41  1  0  0  0  0
 20 42  1  0  0  0  0
 20 43  1  0  0  0  0
 21 44  1  0  0  0  0
 27 45  1  0  0  0  0
 29 46  1  0  0  0  0
 29 47  1  0  0  0  0
 29 48  1  0  0  0  0
M  CHG  2  23   1  25  -1
M  END
> <i_m_stars>
0

> <r_user_dG.exp>
-9.740725

$$$$
18639-1
  -OEChem-05162309453D
 Structure written by MMmdl.
 48 49  0     0  0  0  0  0  0999 V2000
   24.2764   10.8583   30.5311 C   0  0  0  0  0  0  0  0  0  0  0  0
   22.8724   11.1948   30.0242 C   0  0  0  0  0  0  0  0  0  0  0  0
   21.9935   11.3729   31.1346 O   0  0  0  0  0  0  0  0  0  0  0  0
   21.3005   10.2943   31.6577 C   0  0  0  0  0  0  0  0  0  0  0  0
   21.6713    9.0502   31.2482 N   0  0  0  0  0  0  0  0  0  0  0  0
   20.9501    8.0000   31.6666 C   0  0  0  0  0  0  0  0  0  0  0  0
   19.8665    8.1184   32.5257 C   0  0  0  0  0  0  0  0  0  0  0  0
   19.4926    9.3843   32.9417 C   0  0  0  0  0  0  0  0  0  0  0  0
   18.3660    9.4440   33.7525 N   0  0  0  0  0  0  0  0  0  0  0  0
   20.2180   10.5087   32.5170 C   0  0  0  0  0  0  0  0  0  0  0  0
   19.8684   11.8729   32.8958 C   0  0  0  0  0  0  0  0  0  0  0  0
   19.5992   12.9596   33.1898 N   0  0  0  0  0  0  0  0  0  0  0  0
   21.4272    6.8285   31.1136 N   0  0  0  0  0  0  0  0  0  0  0  0
   20.8583    5.6230   31.0220 C   0  0  0  0  0  0  0  0  0  0  0  0
   19.7390    5.3452   31.4465 O   0  0  0  0  0  0  0  0  0  0  0  0
   21.6500    4.5669   30.2607 C   0  0  0  0  0  0  0  0  0  0  0  0
   23.0147    4.2719   30.8751 C   0  0  0  0  0  0  0  0  0  0  0  0
   24.1184    5.0810   30.5810 C   0  0  0  0  0  0  0  0  0  0  0  0
   23.9097    6.1670   29.7482 O   0  0  0  0  0  0  0  0  0  0  0  0
   24.9546    7.1169   29.5477 C   0  0  0  0  0  0  0  0  0  0  0  0
   25.3567    4.7546   31.1456 C   0  0  0  0  0  0  0  0  0  0  0  0
   25.5076    3.6737   32.0309 C   0  0  0  0  0  0  0  0  0  0  0  0
   26.8469    3.4094   32.6231 N   0  3  0  0  0  0  0  0  0  0  0  0
   26.9382    2.7388   33.6465 O   0  0  0  0  0  0  0  0  0  0  0  0
   27.8303    3.9025   32.0768 O   0  5  0  0  0  0  0  0  0  0  0  0
   24.3855    2.8726   32.3281 C   0  0  0  0  0  0  0  0  0  0  0  0
   23.1530    3.1840   31.7378 C   0  0  0  0  0  0  0  0  0  0  0  0
   24.5282    1.8156   33.2068 O   0  0  0  0  0  0  0  0  0  0  0  0
   23.6287    0.7111   33.1397 C   0  0  0  0  0  0  0  0  0  0  0  0
   24.9529   10.7212   29.6747 H   0  0  0  0  0  0  0  0  0  0  0  0
   24.6453   11.6807   31.1617 H   0  0  0  0  0  0  0  0  0  0  0  0
   24.2404    9.9311   31.1218 H   0  0  0  0  0  0  0  0  0  0  0  0
   22.9087   12.1220   29.4334 H   0  0  0  0  0  0  0  0  0  0  0  0
   22.5038   10.3724   29.3935 H   0  0  0  0  0  0  0  0  0  0  0  0
   19.3284    7.2442   32.8613 H   0  0  0  0  0  0  0  0  0  0  0  0
   18.1807   10.3958   33.9969 H   0  0  0  0  0  0  0  0  0  0  0  0
   17.5811    9.0674   33.2605 H   0  0  0  0  0  0  0  0  0  0  0  0
   19.5499    4.4315   31.2679 H   0  0  0  0  0  0  0  0  0  0  0  0
   21.0651    3.6354   30.2472 H   0  0  0  0  0  0  0  0  0  0  0  0
   21.8008    4.9201   29.2299 H   0  0  0  0  0  0  0  0  0  0  0  0
   24.6089    7.9035   28.8608 H   0  0  0  0  0  0  0  0  0  0  0  0
   25.2301    7.5678   30.5125 H   0  0  0  0  0  0  0  0  0  0  0  0
   25.8310    6.6119   29.1154 H   0  0  0  0  0  0  0  0  0  0  0  0
   26.2213    5.3507   30.8936 H   0  0  0  0  0  0  0  0  0  0  0  0
   22.2923    2.5690   31.9553 H   0  0  0  0  0  0  0  0  0  0  0  0
   23.8955   -0.0271   33.9104 H   0  0  0  0  0  0  0  0  0  0  0  0
   22.6011    1.0644   33.3106 H   0  0  0  0  0  0  0  0  0  0  0  0
   23.6953    0.2440   32.1460 H   0  0  0  0  0  0  0  0  0  0  0  0
  1  2  1  0  0  0  0
  2  3  1  0  0  0  0
  3  4  1  0  0  0  0
  4 10  2  0  0  0  0
  4  5  1  0  0  0  0
  5  6  2  0  0  0  0
  6  7  1  0  0  0  0
  6 13  1  0  0  0  0
  7  8  2  0  0  0  0
  8  9  1  0  0  0  0
  8 10  1  0  0  0  0
 10 11  1  0  0  0  0
 11 12  3  0  0  0  0
 13 14  2  0  0  0  0
 14 15  1  0  0  0  0
 14 16  1  0  0  0  0
 16 17  1  0  0  0  0
 17 27  2  0  0  0  0
 17 18  1  0  0  0  0
 18 19  1  0  0  0  0
 18 21  2  0  0  0  0
 19 20  1  0  0  0  0
 21 22  1  0  0  0  0
 22 23  1  0  0  0  0
 22 26  2  0  0  0  0
 23 24  2  0  0  0  0
 23 25  1  0  0  0  0
 26 27  1  0  0  0  0
 26 28  1  0  0  0  0
 28 29  1  0  0  0  0
  1 30  1  0  0  0  0
  1 31  1  0  0  0  0
  1 32  1  0  0  0  0
  2 33  1  0  0  0  0
  2 34  1  0  0  0  0
  7 35  1  0  0  0  0
  9 36  1  0  0  0  0
  9 37  1  0  0  0  0
 15 38  1  0  0  0  0
 16 39  1  0  0  0  0
 16 40  1  0  0  0  0
 20 41  1  0  0  0  0
 20 42  1  0  0  0  0
 20 43  1  0  0  0  0
 21 44  1  0  0  0  0
 27 45  1  0  0  0  0
 29 46  1  0  0  0  0
 29 47  1  0  0  0  0
 29 48  1  0  0  0  0
M  CHG  2  23   1  25  -1
M  END
> <i_m_stars>
0

> <r_user_dG.exp>
-9.740725

$$$$
18639-1
  -OEChem-05162309453D
 Structure written by MMmdl.
 48 49  0     0  0  0  0  0  0999 V2000
   24.2764   10.8583   30.5311 C   0  0  0  0  0  0  0  0  0  0  0  0
   22.8724   11.1948   30.0242 C   0  0  0  0  0  0  0  0  0  0  0  0
   21.9935   11.3729   31.1346 O   0  0  0  0  0  0  0  0  0  0  0  0
   21.3005   10.2943   31.6577 C   0  0  0  0  0  0  0  0  0  0  0  0
   21.6713    9.0502   31.2482 N   0  0  0  0  0  0  0  0  0  0  0  0
   20.9501    8.0000   31.6666 C   0  0  0  0  0  0  0  0  0  0  0  0
   19.8665    8.1184   32.5257 C   0  0  0  0  0  0  0  0  0  0  0  0
   19.4926    9.3843   32.9417 C   0  0  0  0  0  0  0  0  0  0  0  0
   18.3660    9.4440   33.7525 N   0  0  0  0  0  0  0  0  0  0  0  0
   20.2180   10.5087   32.5170 C   0  0  0  0  0  0  0  0  0  0  0  0
   19.8684   11.8729   32.8958 C   0  0  0  0  0  0  0  0  0  0  0  0
   19.5992   12.9596   33.1898 N   0  0  0  0  0  0  0  0  0  0  0  0
   21.4272    6.8285   31.1136 N   0  0  0  0  0  0  0  0  0  0  0  0
   20.8583    5.6230   31.0220 C   0  0  0  0  0  0  0  0  0  0  0  0
   19.7390    5.3452   31.4465 O   0  0  0  0  0  0  0  0  0  0  0  0
   21.6500    4.5669   30.2607 C   0  0  0  0  0  0  0  0  0  0  0  0
   23.0147    4.2719   30.8751 C   0  0  0  0  0  0  0  0  0  0  0  0
   24.1184    5.0810   30.5810 C   0  0  0  0  0  0  0  0  0  0  0  0
   23.9097    6.1670   29.7482 O   0  0  0  0  0  0  0  0  0  0  0  0
   24.9546    7.1169   29.5477 C   0  0  0  0  0  0  0  0  0  0  0  0
   25.3567    4.7546   31.1456 C   0  0  0  0  0  0  0  0  0  0  0  0
   25.5076    3.6737   32.0309 C   0  0  0  0  0  0  0  0  0  0  0  0
   26.8469    3.4094   32.6231 N   0  3  0  0  0  0  0  0  0  0  0  0
   26.9382    2.7388   33.6465 O   0  0  0  0  0  0  0  0  0  0  0  0
   27.8303    3.9025   32.0768 O   0  5  0  0  0  0  0  0  0  0  0  0
   24.3855    2.8726   32.3281 C   0  0  0  0  0  0  0  0  0  0  0  0
   23.1530    3.1840   31.7378 C   0  0  0  0  0  0  0  0  0  0  0  0
   24.5282    1.8156   33.2068 O   0  0  0  0  0  0  0  0  0  0  0  0
   23.6287    0.7111   33.1397 C   0  0  0  0  0  0  0  0  0  0  0  0
   24.9529   10.7212   29.6747 H   0  0  0  0  0  0  0  0  0  0  0  0
   24.6453   11.6807   31.1617 H   0  0  0  0  0  0  0  0  0  0  0  0
   24.2404    9.9311   31.1218 H   0  0  0  0  0  0  0  0  0  0  0  0
   22.9087   12.1220   29.4334 H   0  0  0  0  0  0  0  0  0  0  0  0
   22.5038   10.3724   29.3935 H   0  0  0  0  0  0  0  0  0  0  0  0
   22.4623    8.9225   30.6499 H   0  0  0  0  0  0  0  0  0  0  0  0
   19.3284    7.2442   32.8613 H   0  0  0  0  0  0  0  0  0  0  0  0
   18.1313   10.3843   33.9991 H   0  0  0  0  0  0  0  0  0  0  0  0
   22.3439    6.8922   30.7190 H   0  0  0  0  0  0  0  0  0  0  0  0
   21.0651    3.6354   30.2472 H   0  0  0  0  0  0  0  0  0  0  0  0
   21.8008    4.9201   29.2299 H   0  0  0  0  0  0  0  0  0  0  0  0
   24.6089    7.9035   28.8608 H   0  0  0  0  0  0  0  0  0  0  0  0
   25.2301    7.5678   30.5125 H   0  0  0  0  0  0  0  0  0  0  0  0
   25.8310    6.6119   29.1154 H   0  0  0  0  0  0  0  0  0  0  0  0
   26.2213    5.3507   30.8936 H   0  0  0  0  0  0  0  0  0  0  0  0
   22.2923    2.5690   31.9553 H   0  0  0  0  0  0  0  0  0  0  0  0
   23.8955   -0.0271   33.9104 H   0  0  0  0  0  0  0  0  0  0  0  0
   22.6011    1.0644   33.3106 H   0  0  0  0  0  0  0  0  0  0  0  0
   23.6953    0.2440   32.1460 H   0  0  0  0  0  0  0  0  0  0  0  0
  1  2  1  0  0  0  0
  2  3  1  0  0  0  0
  3  4  1  0  0  0  0
  4 10  2  0  0  0  0
  4  5  1  0  0  0  0
  5  6  1  0  0  0  0
  6  7  2  0  0  0  0
  6 13  1  0  0  0  0
  7  8  1  0  0  0  0
  8  9  2  0  0  0  0
  8 10  1  0  0  0  0
 10 11  1  0  0  0  0
 11 12  3  0  0  0  0
 13 14  1  0  0  0  0
 14 15  2  0  0  0  0
 14 16  1  0  0  0  0
 16 17  1  0  0  0  0
 17 27  2  0  0  0  0
 17 18  1  0  0  0  0
 18 19  1  0  0  0  0
 18 21  2  0  0  0  0
 19 20  1  0  0  0  0
 21 22  1  0  0  0  0
 22 23  1  0  0  0  0
 22 26  2  0  0  0  0
 23 24  2  0  0  0  0
 23 25  1  0  0  0  0
 26 27  1  0  0  0  0
 26 28  1  0  0  0  0
 28 29  1  0  0  0  0
  1 30  1  0  0  0  0
  1 31  1  0  0  0  0
  1 32  1  0  0  0  0
  2 33  1  0  0  0  0
  2 34  1  0  0  0  0
  5 35  1  0  0  0  0
  7 36  1  0  0  0  0
  9 37  1  0  0  0  0
 13 38  1  0  0  0  0
 16 39  1  0  0  0  0
 16 40  1  0  0  0  0
 20 41  1  0  0  0  0
 20 42  1  0  0  0  0
 20 43  1  0  0  0  0
 21 44  1  0  0  0  0
 27 45  1  0  0  0  0
 29 46  1  0  0  0  0
 29 47  1  0  0  0  0
 29 48  1  0  0  0  0
M  CHG  2  23   1  25  -1
M  END
> <i_m_stars>
0

> <r_user_dG.exp>
-9.740725

$$$$
18639-1
  -OEChem-05162309453D
 Structure written by MMmdl.
 48 49  0     0  0  0  0  0  0999 V2000
   24.2764   10.8583   30.5311 C   0  0  0  0  0  0  0  0  0  0  0  0
   22.8724   11.1948   30.0242 C   0  0  0  0  0  0  0  0  0  0  0  0
   21.9935   11.3729   31.1346 O   0  0  0  0  0  0  0  0  0  0  0  0
   21.3005   10.2943   31.6577 C   0  0  0  0  0  0  0  0  0  0  0  0
   21.6713    9.0502   31.2482 N   0  0  0  0  0  0  0  0  0  0  0  0
   20.9501    8.0000   31.6666 C   0  0  0  0  0  0  0  0  0  0  0  0
   19.8665    8.1184   32.5257 C   0  0  0  0  0  0  0  0  0  0  0  0
   19.4926    9.3843   32.9417 C   0  0  0  0  0  0  0  0  0  0  0  0
   18.3660    9.4440   33.7525 N   0  0  0  0  0  0  0  0  0  0  0  0
   20.2180   10.5087   32.5170 C   0  0  0  0  0  0  0  0  0  0  0  0
   19.8684   11.8729   32.8958 C   0  0  0  0  0  0  0  0  0  0  0  0
   19.5992   12.9596   33.1898 N   0  0  0  0  0  0  0  0  0  0  0  0
   21.4272    6.8285   31.1136 N   0  0  0  0  0  0  0  0  0  0  0  0
   20.8583    5.6230   31.0220 C   0  0  0  0  0  0  0  0  0  0  0  0
   19.7390    5.3452   31.4465 O   0  0  0  0  0  0  0  0  0  0  0  0
   21.6500    4.5669   30.2607 C   0  0  0  0  0  0  0  0  0  0  0  0
   23.0147    4.2719   30.8751 C   0  0  0  0  0  0  0  0  0  0  0  0
   24.1184    5.0810   30.5810 C   0  0  0  0  0  0  0  0  0  0  0  0
   23.9097    6.1670   29.7482 O   0  0  0  0  0  0  0  0  0  0  0  0
   24.9546    7.1169   29.5477 C   0  0  0  0  0  0  0  0  0  0  0  0
   25.3567    4.7546   31.1456 C   0  0  0  0  0  0  0  0  0  0  0  0
   25.5076    3.6737   32.0309 C   0  0  0  0  0  0  0  0  0  0  0  0
   26.8469    3.4094   32.6231 N   0  3  0  0  0  0  0  0  0  0  0  0
   26.9382    2.7388   33.6465 O   0  0  0  0  0  0  0  0  0  0  0  0
   27.8303    3.9025   32.0768 O   0  5  0  0  0  0  0  0  0  0  0  0
   24.3855    2.8726   32.3281 C   0  0  0  0  0  0  0  0  0  0  0  0
   23.1530    3.1840   31.7378 C   0  0  0  0  0  0  0  0  0  0  0  0
   24.5282    1.8156   33.2068 O   0  0  0  0  0  0  0  0  0  0  0  0
   23.6287    0.7111   33.1397 C   0  0  0  0  0  0  0  0  0  0  0  0
   24.9529   10.7212   29.6747 H   0  0  0  0  0  0  0  0  0  0  0  0
   24.6453   11.6807   31.1617 H   0  0  0  0  0  0  0  0  0  0  0  0
   24.2404    9.9311   31.1218 H   0  0  0  0  0  0  0  0  0  0  0  0
   22.9087   12.1220   29.4334 H   0  0  0  0  0  0  0  0  0  0  0  0
   22.5038   10.3724   29.3935 H   0  0  0  0  0  0  0  0  0  0  0  0
   22.4623    8.9225   30.6499 H   0  0  0  0  0  0  0  0  0  0  0  0
   19.3284    7.2442   32.8613 H   0  0  0  0  0  0  0  0  0  0  0  0
   18.1807   10.3958   33.9969 H   0  0  0  0  0  0  0  0  0  0  0  0
   17.5811    9.0674   33.2605 H   0  0  0  0  0  0  0  0  0  0  0  0
   21.0651    3.6354   30.2472 H   0  0  0  0  0  0  0  0  0  0  0  0
   21.8008    4.9201   29.2299 H   0  0  0  0  0  0  0  0  0  0  0  0
   24.6089    7.9035   28.8608 H   0  0  0  0  0  0  0  0  0  0  0  0
   25.2301    7.5678   30.5125 H   0  0  0  0  0  0  0  0  0  0  0  0
   25.8310    6.6119   29.1154 H   0  0  0  0  0  0  0  0  0  0  0  0
   26.2213    5.3507   30.8936 H   0  0  0  0  0  0  0  0  0  0  0  0
   22.2923    2.5690   31.9553 H   0  0  0  0  0  0  0  0  0  0  0  0
   23.8955   -0.0271   33.9104 H   0  0  0  0  0  0  0  0  0  0  0  0
   22.6011    1.0644   33.3106 H   0  0  0  0  0  0  0  0  0  0  0  0
   23.6953    0.2440   32.1460 H   0  0  0  0  0  0  0  0  0  0  0  0
  1  2  1  0  0  0  0
  2  3  1  0  0  0  0
  3  4  1  0  0  0  0
  4 10  2  0  0  0  0
  4  5  1  0  0  0  0
  5  6  1  0  0  0  0
  6  7  1  0  0  0  0
  6 13  2  0  0  0  0
  7  8  2  0  0  0  0
  8  9  1  0  0  0  0
  8 10  1  0  0  0  0
 10 11  1  0  0  0  0
 11 12  3  0  0  0  0
 13 14  1  0  0  0  0
 14 15  2  0  0  0  0
 14 16  1  0  0  0  0
 16 17  1  0  0  0  0
 17 27  2  0  0  0  0
 17 18  1  0  0  0  0
 18 19  1  0  0  0  0
 18 21  2  0  0  0  0
 19 20  1  0  0  0  0
 21 22  1  0  0  0  0
 22 23  1  0  0  0  0
 22 26  2  0  0  0  0
 23 24  2  0  0  0  0
 23 25  1  0  0  0  0
 26 27  1  0  0  0  0
 26 28  1  0  0  0  0
 28 29  1  0  0  0  0
  1 30  1  0  0  0  0
  1 31  1  0  0  0  0
  1 32  1  0  0  0  0
  2 33  1  0  0  0  0
  2 34  1  0  0  0  0
  5 35  1  0  0  0  0
  7 36  1  0  0  0  0
  9 37  1  0  0  0  0
  9 38  1  0  0  0  0
 16 39  1  0  0  0  0
 16 40  1  0  0  0  0
 20 41  1  0  0  0  0
 20 42  1  0  0  0  0
 20 43  1  0  0  0  0
 21 44  1  0  0  0  0
 27 45  1  0  0  0  0
 29 46  1  0  0  0  0
 29 47  1  0  0  0  0
 29 48  1  0  0  0  0
M  CHG  2  23   1  25  -1
M  END
> <i_m_stars>
0

> <r_user_dG.exp>
-9.740725

$$$$
18639-1
  -OEChem-05162309453D
 Structure written by MMmdl.
 48 49  0     0  0  0  0  0  0999 V2000
   24.2764   10.8583   30.5311 C   0  0  0  0  0  0  0  0  0  0  0  0
   22.8724   11.1948   30.0242 C   0  0  0  0  0  0  0  0  0  0  0  0
   21.9935   11.3729   31.1346 O   0  0  0  0  0  0  0  0  0  0  0  0
   21.3005   10.2943   31.6577 C   0  0  0  0  0  0  0  0  0  0  0  0
   21.6713    9.0502   31.2482 N   0  0  0  0  0  0  0  0  0  0  0  0
   20.9501    8.0000   31.6666 C   0  0  0  0  0  0  0  0  0  0  0  0
   19.8665    8.1184   32.5257 C   0  0  0  0  0  0  0  0  0  0  0  0
   19.4926    9.3843   32.9417 C   0  0  0  0  0  0  0  0  0  0  0  0
   18.3660    9.4440   33.7525 N   0  0  0  0  0  0  0  0  0  0  0  0
   20.2180   10.5087   32.5170 C   0  0  0  0  0  0  0  0  0  0  0  0
   19.8684   11.8729   32.8958 C   0  0  0  0  0  0  0  0  0  0  0  0
   19.5992   12.9596   33.1898 N   0  0  0  0  0  0  0  0  0  0  0  0
   21.4272    6.8285   31.1136 N   0  0  0  0  0  0  0  0  0  0  0  0
   20.8583    5.6230   31.0220 C   0  0  0  0  0  0  0  0  0  0  0  0
   19.7390    5.3452   31.4465 O   0  0  0  0  0  0  0  0  0  0  0  0
   21.6500    4.5669   30.2607 C   0  0  0  0  0  0  0  0  0  0  0  0
   23.0147    4.2719   30.8751 C   0  0  0  0  0  0  0  0  0  0  0  0
   24.1184    5.0810   30.5810 C   0  0  0  0  0  0  0  0  0  0  0  0
   23.9097    6.1670   29.7482 O   0  0  0  0  0  0  0  0  0  0  0  0
   24.9546    7.1169   29.5477 C   0  0  0  0  0  0  0  0  0  0  0  0
   25.3567    4.7546   31.1456 C   0  0  0  0  0  0  0  0  0  0  0  0
   25.5076    3.6737   32.0309 C   0  0  0  0  0  0  0  0  0  0  0  0
   26.8469    3.4094   32.6231 N   0  3  0  0  0  0  0  0  0  0  0  0
   26.9382    2.7388   33.6465 O   0  0  0  0  0  0  0  0  0  0  0  0
   27.8303    3.9025   32.0768 O   0  5  0  0  0  0  0  0  0  0  0  0
   24.3855    2.8726   32.3281 C   0  0  0  0  0  0  0  0  0  0  0  0
   23.1530    3.1840   31.7378 C   0  0  0  0  0  0  0  0  0  0  0  0
   24.5282    1.8156   33.2068 O   0  0  0  0  0  0  0  0  0  0  0  0
   23.6287    0.7111   33.1397 C   0  0  0  0  0  0  0  0  0  0  0  0
   24.9529   10.7212   29.6747 H   0  0  0  0  0  0  0  0  0  0  0  0
   24.6453   11.6807   31.1617 H   0  0  0  0  0  0  0  0  0  0  0  0
   24.2404    9.9311   31.1218 H   0  0  0  0  0  0  0  0  0  0  0  0
   22.9087   12.1220   29.4334 H   0  0  0  0  0  0  0  0  0  0  0  0
   22.5038   10.3724   29.3935 H   0  0  0  0  0  0  0  0  0  0  0  0
   22.4623    8.9225   30.6499 H   0  0  0  0  0  0  0  0  0  0  0  0
   19.3284    7.2442   32.8613 H   0  0  0  0  0  0  0  0  0  0  0  0
   18.1313   10.3843   33.9991 H   0  0  0  0  0  0  0  0  0  0  0  0
   19.5499    4.4315   31.2679 H   0  0  0  0  0  0  0  0  0  0  0  0
   21.0651    3.6354   30.2472 H   0  0  0  0  0  0  0  0  0  0  0  0
   21.8008    4.9201   29.2299 H   0  0  0  0  0  0  0  0  0  0  0  0
   24.6089    7.9035   28.8608 H   0  0  0  0  0  0  0  0  0  0  0  0
   25.2301    7.5678   30.5125 H   0  0  0  0  0  0  0  0  0  0  0  0
   25.8310    6.6119   29.1154 H   0  0  0  0  0  0  0  0  0  0  0  0
   26.2213    5.3507   30.8936 H   0  0  0  0  0  0  0  0  0  0  0  0
   22.2923    2.5690   31.9553 H   0  0  0  0  0  0  0  0  0  0  0  0
   23.8955   -0.0271   33.9104 H   0  0  0  0  0  0  0  0  0  0  0  0
   22.6011    1.0644   33.3106 H   0  0  0  0  0  0  0  0  0  0  0  0
   23.6953    0.2440   32.1460 H   0  0  0  0  0  0  0  0  0  0  0  0
  1  2  1  0  0  0  0
  2  3  1  0  0  0  0
  3  4  1  0  0  0  0
  4 10  2  0  0  0  0
  4  5  1  0  0  0  0
  5  6  1  0  0  0  0
  6  7  2  0  0  0  0
  6 13  1  0  0  0  0
  7  8  1  0  0  0  0
  8  9  2  0  0  0  0
  8 10  1  0  0  0  0
 10 11  1  0  0  0  0
 11 12  3  0  0  0  0
 13 14  2  0  0  0  0
 14 15  1  0  0  0  0
 14 16  1  0  0  0  0
 16 17  1  0  0  0  0
 17 27  2  0  0  0  0
 17 18  1  0  0  0  0
 18 19  1  0  0  0  0
 18 21  2  0  0  0  0
 19 20  1  0  0  0  0
 21 22  1  0  0  0  0
 22 23  1  0  0  0  0
 22 26  2  0  0  0  0
 23 24  2  0  0  0  0
 23 25  1  0  0  0  0
 26 27  1  0  0  0  0
 26 28  1  0  0  0  0
 28 29  1  0  0  0  0
  1 30  1  0  0  0  0
  1 31  1  0  0  0  0
  1 32  1  0  0  0  0
  2 33  1  0  0  0  0
  2 34  1  0  0  0  0
  5 35  1  0  0  0  0
  7 36  1  0  0  0  0
  9 37  1  0  0  0  0
 15 38  1  0  0  0  0
 16 39  1  0  0  0  0
 16 40  1  0  0  0  0
 20 41  1  0  0  0  0
 20 42  1  0  0  0  0
 20 43  1  0  0  0  0
 21 44  1  0  0  0  0
 27 45  1  0  0  0  0
 29 46  1  0  0  0  0
 29 47  1  0  0  0  0
 29 48  1  0  0  0  0
M  CHG  2  23   1  25  -1
M  END
> <i_m_stars>
0

> <r_user_dG.exp>
-9.740725

$$$$
18639-1
  -OEChem-05162309453D
 Structure written by MMmdl.
 48 49  0     1  0  0  0  0  0999 V2000
   24.2764   10.8583   30.5311 C   0  0  0  0  0  0  0  0  0  0  0  0
   22.8724   11.1948   30.0242 C   0  0  0  0  0  0  0  0  0  0  0  0
   21.9935   11.3729   31.1346 O   0  0  0  0  0  0  0  0  0  0  0  0
   21.3005   10.2943   31.6577 C   0  0  0  0  0  0  0  0  0  0  0  0
   21.6713    9.0502   31.2482 N   0  0  0  0  0  0  0  0  0  0  0  0
   20.9501    8.0000   31.6666 C   0  0  0  0  0  0  0  0  0  0  0  0
   19.8665    8.1184   32.5257 C   0  0  0  0  0  0  0  0  0  0  0  0
   19.4926    9.3843   32.9417 C   0  0  0  0  0  0  0  0  0  0  0  0
   18.3660    9.4440   33.7525 N   0  0  0  0  0  0  0  0  0  0  0  0
   20.2180   10.5087   32.5170 C   0  0  3  0  0  0  0  0  0  0  0  0
   19.8684   11.8729   32.8958 C   0  0  0  0  0  0  0  0  0  0  0  0
   19.5992   12.9596   33.1898 N   0  0  0  0  0  0  0  0  0  0  0  0
   21.4272    6.8285   31.1136 N   0  0  0  0  0  0  0  0  0  0  0  0
   20.8583    5.6230   31.0220 C   0  0  0  0  0  0  0  0  0  0  0  0
   19.7390    5.3452   31.4465 O   0  0  0  0  0  0  0  0  0  0  0  0
   21.6500    4.5669   30.2607 C   0  0  0  0  0  0  0  0  0  0  0  0
   23.0147    4.2719   30.8751 C   0  0  0  0  0  0  0  0  0  0  0  0
   24.1184    5.0810   30.5810 C   0  0  0  0  0  0  0  0  0  0  0  0
   23.9097    6.1670   29.7482 O   0  0  0  0  0  0  0  0  0  0  0  0
   24.9546    7.1169   29.5477 C   0  0  0  0  0  0  0  0  0  0  0  0
   25.3567    4.7546   31.1456 C   0  0  0  0  0  0  0  0  0  0  0  0
   25.5076    3.6737   32.0309 C   0  0  0  0  0  0  0  0  0  0  0  0
   26.8469    3.4094   32.6231 N   0  3  0  0  0  0  0  0  0  0  0  0
   26.9382    2.7388   33.6465 O   0  0  0  0  0  0  0  0  0  0  0  0
   27.8303    3.9025   32.0768 O   0  5  0  0  0  0  0  0  0  0  0  0
   24.3855    2.8726   32.3281 C   0  0  0  0  0  0  0  0  0  0  0  0
   23.1530    3.1840   31.7378 C   0  0  0  0  0  0  0  0  0  0  0  0
   24.5282    1.8156   33.2068 O   0  0  0  0  0  0  0  0  0  0  0  0
   23.6287    0.7111   33.1397 C   0  0  0  0  0  0  0  0  0  0  0  0
   24.9529   10.7212   29.6747 H   0  0  0  0  0  0  0  0  0  0  0  0
   24.6453   11.6807   31.1617 H   0  0  0  0  0  0  0  0  0  0  0  0
   24.2404    9.9311   31.1218 H   0  0  0  0  0  0  0  0  0  0  0  0
   22.9087   12.1220   29.4334 H   0  0  0  0  0  0  0  0  0  0  0  0
   22.5038   10.3724   29.3935 H   0  0  0  0  0  0  0  0  0  0  0  0
   18.9983    7.6732   32.0177 H   0  0  0  0  0  0  0  0  0  0  0  0
   20.1018    7.5355   33.4284 H   0  0  0  0  0  0  0  0  0  0  0  0
   18.1313   10.3843   33.9991 H   0  0  0  0  0  0  0  0  0  0  0  0
   20.8809   10.4247   33.3908 H   0  0  0  0  0  0  0  0  0  0  0  0
   21.0651    3.6354   30.2472 H   0  0  0  0  0  0  0  0  0  0  0  0
   21.8008    4.9201   29.2299 H   0  0  0  0  0  0  0  0  0  0  0  0
   24.6089    7.9035   28.8608 H   0  0  0  0  0  0  0  0  0  0  0  0
   25.2301    7.5678   30.5125 H   0  0  0  0  0  0  0  0  0  0  0  0
   25.8310    6.6119   29.1154 H   0  0  0  0  0  0  0  0  0  0  0  0
   26.2213    5.3507   30.8936 H   0  0  0  0  0  0  0  0  0  0  0  0
   22.2923    2.5690   31.9553 H   0  0  0  0  0  0  0  0  0  0  0  0
   23.8955   -0.0271   33.9104 H   0  0  0  0  0  0  0  0  0  0  0  0
   22.6011    1.0644   33.3106 H   0  0  0  0  0  0  0  0  0  0  0  0
   23.6953    0.2440   32.1460 H   0  0  0  0  0  0  0  0  0  0  0  0
  1  2  1  0  0  0  0
  2  3  1  0  0  0  0
  3  4  1  0  0  0  0
  4 10  1  0  0  0  0
  4  5  2  0  0  0  0
  5  6  1  0  0  0  0
  6  7  1  0  0  0  0
  6 13  2  0  0  0  0
  7  8  1  0  0  0  0
  8  9  2  0  0  0  0
  8 10  1  0  0  0  0
 10 11  1  0  0  0  0
 11 12  3  0  0  0  0
 13 14  1  0  0  0  0
 14 15  2  0  0  0  0
 14 16  1  0  0  0  0
 16 17  1  0  0  0  0
 17 27  2  0  0  0  0
 17 18  1  0  0  0  0
 18 19  1  0  0  0  0
 18 21  2  0  0  0  0
 19 20  1  0  0  0  0
 21 22  1  0  0  0  0
 22 23  1  0  0  0  0
 22 26  2  0  0  0  0
 23 24  2  0  0  0  0
 23 25  1  0  0  0  0
 26 27  1  0  0  0  0
 26 28  1  0  0  0  0
 28 29  1  0  0  0  0
  1 30  1  0  0  0  0
  1 31  1  0  0  0  0
  1 32  1  0  0  0  0
  2 33  1  0  0  0  0
  2 34  1  0  0  0  0
  7 35  1  0  0  0  0
  7 36  1  0  0  0  0
  9 37  1  0  0  0  0
 10 38  1  0  0  0  0
 16 39  1  0  0  0  0
 16 40  1  0  0  0  0
 20 41  1  0  0  0  0
 20 42  1  0  0  0  0
 20 43  1  0  0  0  0
 21 44  1  0  0  0  0
 27 45  1  0  0  0  0
 29 46  1  0  0  0  0
 29 47  1  0  0  0  0
 29 48  1  0  0  0  0
M  CHG  2  23   1  25  -1
M  END
> <i_m_stars>
0

> <r_user_dG.exp>
-9.740725

$$$$
18639-1
  -OEChem-05162309453D
 Structure written by MMmdl.
 48 49  0     1  0  0  0  0  0999 V2000
   24.2764   10.8583   30.5311 C   0  0  0  0  0  0  0  0  0  0  0  0
   22.8724   11.1948   30.0242 C   0  0  0  0  0  0  0  0  0  0  0  0
   21.9935   11.3729   31.1346 O   0  0  0  0  0  0  0  0  0  0  0  0
   21.3005   10.2943   31.6577 C   0  0  0  0  0  0  0  0  0  0  0  0
   21.6713    9.0502   31.2482 N   0  0  0  0  0  0  0  0  0  0  0  0
   20.9501    8.0000   31.6666 C   0  0  0  0  0  0  0  0  0  0  0  0
   19.8665    8.1184   32.5257 C   0  0  0  0  0  0  0  0  0  0  0  0
   19.4926    9.3843   32.9417 C   0  0  0  0  0  0  0  0  0  0  0  0
   18.3660    9.4440   33.7525 N   0  0  0  0  0  0  0  0  0  0  0  0
   20.2180   10.5087   32.5170 C   0  0  3  0  0  0  0  0  0  0  0  0
   19.8684   11.8729   32.8958 C   0  0  0  0  0  0  0  0  0  0  0  0
   19.5992   12.9596   33.1898 N   0  0  0  0  0  0  0  0  0  0  0  0
   21.4272    6.8285   31.1136 N   0  0  0  0  0  0  0  0  0  0  0  0
   20.8583    5.6230   31.0220 C   0  0  0  0  0  0  0  0  0  0  0  0
   19.7390    5.3452   31.4465 O   0  0  0  0  0  0  0  0  0  0  0  0
   21.6500    4.5669   30.2607 C   0  0  0  0  0  0  0  0  0  0  0  0
   23.0147    4.2719   30.8751 C   0  0  0  0  0  0  0  0  0  0  0  0
   24.1184    5.0810   30.5810 C   0  0  0  0  0  0  0  0  0  0  0  0
   23.9097    6.1670   29.7482 O   0  0  0  0  0  0  0  0  0  0  0  0
   24.9546    7.1169   29.5477 C   0  0  0  0  0  0  0  0  0  0  0  0
   25.3567    4.7546   31.1456 C   0  0  0  0  0  0  0  0  0  0  0  0
   25.5076    3.6737   32.0309 C   0  0  0  0  0  0  0  0  0  0  0  0
   26.8469    3.4094   32.6231 N   0  3  0  0  0  0  0  0  0  0  0  0
   26.9382    2.7388   33.6465 O   0  0  0  0  0  0  0  0  0  0  0  0
   27.8303    3.9025   32.0768 O   0  5  0  0  0  0  0  0  0  0  0  0
   24.3855    2.8726   32.3281 C   0  0  0  0  0  0  0  0  0  0  0  0
   23.1530    3.1840   31.7378 C   0  0  0  0  0  0  0  0  0  0  0  0
   24.5282    1.8156   33.2068 O   0  0  0  0  0  0  0  0  0  0  0  0
   23.6287    0.7111   33.1397 C   0  0  0  0  0  0  0  0  0  0  0  0
   24.9529   10.7212   29.6747 H   0  0  0  0  0  0  0  0  0  0  0  0
   24.6453   11.6807   31.1617 H   0  0  0  0  0  0  0  0  0  0  0  0
   24.2404    9.9311   31.1218 H   0  0  0  0  0  0  0  0  0  0  0  0
   22.9087   12.1220   29.4334 H   0  0  0  0  0  0  0  0  0  0  0  0
   22.5038   10.3724   29.3935 H   0  0  0  0  0  0  0  0  0  0  0  0
   19.3284    7.2442   32.8613 H   0  0  0  0  0  0  0  0  0  0  0  0
   18.1313   10.3843   33.9991 H   0  0  0  0  0  0  0  0  0  0  0  0
   20.8809   10.4247   33.3908 H   0  0  0  0  0  0  0  0  0  0  0  0
   22.3439    6.8922   30.7190 H   0  0  0  0  0  0  0  0  0  0  0  0
   21.0651    3.6354   30.2472 H   0  0  0  0  0  0  0  0  0  0  0  0
   21.8008    4.9201   29.2299 H   0  0  0  0  0  0  0  0  0  0  0  0
   24.6089    7.9035   28.8608 H   0  0  0  0  0  0  0  0  0  0  0  0
   25.2301    7.5678   30.5125 H   0  0  0  0  0  0  0  0  0  0  0  0
   25.8310    6.6119   29.1154 H   0  0  0  0  0  0  0  0  0  0  0  0
   26.2213    5.3507   30.8936 H   0  0  0  0  0  0  0  0  0  0  0  0
   22.2923    2.5690   31.9553 H   0  0  0  0  0  0  0  0  0  0  0  0
   23.8955   -0.0271   33.9104 H   0  0  0  0  0  0  0  0  0  0  0  0
   22.6011    1.0644   33.3106 H   0  0  0  0  0  0  0  0  0  0  0  0
   23.6953    0.2440   32.1460 H   0  0  0  0  0  0  0  0  0  0  0  0
  1  2  1  0  0  0  0
  2  3  1  0  0  0  0
  3  4  1  0  0  0  0
  4 10  1  0  0  0  0
  4  5  2  0  0  0  0
  5  6  1  0  0  0  0
  6  7  2  0  0  0  0
  6 13  1  0  0  0  0
  7  8  1  0  0  0  0
  8  9  2  0  0  0  0
  8 10  1  0  0  0  0
 10 11  1  0  0  0  0
 11 12  3  0  0  0  0
 13 14  1  0  0  0  0
 14 15  2  0  0  0  0
 14 16  1  0  0  0  0
 16 17  1  0  0  0  0
 17 27  2  0  0  0  0
 17 18  1  0  0  0  0
 18 19  1  0  0  0  0
 18 21  2  0  0  0  0
 19 20  1  0  0  0  0
 21 22  1  0  0  0  0
 22 23  1  0  0  0  0
 22 26  2  0  0  0  0
 23 24  2  0  0  0  0
 23 25  1  0  0  0  0
 26 27  1  0  0  0  0
 26 28  1  0  0  0  0
 28 29  1  0  0  0  0
  1 30  1  0  0  0  0
  1 31  1  0  0  0  0
  1 32  1  0  0  0  0
  2 33  1  0  0  0  0
  2 34  1  0  0  0  0
  7 35  1  0  0  0  0
  9 36  1  0  0  0  0
 10 37  1  0  0  0  0
 13 38  1  0  0  0  0
 16 39  1  0  0  0  0
 16 40  1  0  0  0  0
 20 41  1  0  0  0  0
 20 42  1  0  0  0  0
 20 43  1  0  0  0  0
 21 44  1  0  0  0  0
 27 45  1  0  0  0  0
 29 46  1  0  0  0  0
 29 47  1  0  0  0  0
 29 48  1  0  0  0  0
M  CHG  2  23   1  25  -1
M  END
> <i_m_stars>
0

> <r_user_dG.exp>
-9.740725

$$$$
18639-1
  -OEChem-05162309453D
 Structure written by MMmdl.
 48 49  0     0  0  0  0  0  0999 V2000
   24.2764   10.8583   30.5311 C   0  0  0  0  0  0  0  0  0  0  0  0
   22.8724   11.1948   30.0242 C   0  0  0  0  0  0  0  0  0  0  0  0
   21.9935   11.3729   31.1346 O   0  0  0  0  0  0  0  0  0  0  0  0
   21.3005   10.2943   31.6577 C   0  0  0  0  0  0  0  0  0  0  0  0
   21.6713    9.0502   31.2482 N   0  0  0  0  0  0  0  0  0  0  0  0
   20.9501    8.0000   31.6666 C   0  0  0  0  0  0  0  0  0  0  0  0
   19.8665    8.1184   32.5257 C   0  0  0  0  0  0  0  0  0  0  0  0
   19.4926    9.3843   32.9417 C   0  0  0  0  0  0  0  0  0  0  0  0
   18.3660    9.4440   33.7525 N   0  0  0  0  0  0  0  0  0  0  0  0
   20.2180   10.5087   32.5170 C   0  0  0  0  0  0  0  0  0  0  0  0
   19.8684   11.8729   32.8958 C   0  0  0  0  0  0  0  0  0  0  0  0
   19.5992   12.9596   33.1898 N   0  0  0  0  0  0  0  0  0  0  0  0
   21.4272    6.8285   31.1136 N   0  0  0  0  0  0  0  0  0  0  0  0
   20.8583    5.6230   31.0220 C   0  0  0  0  0  0  0  0  0  0  0  0
   19.7390    5.3452   31.4465 O   0  0  0  0  0  0  0  0  0  0  0  0
   21.6500    4.5669   30.2607 C   0  0  0  0  0  0  0  0  0  0  0  0
   23.0147    4.2719   30.8751 C   0  0  0  0  0  0  0  0  0  0  0  0
   24.1184    5.0810   30.5810 C   0  0  0  0  0  0  0  0  0  0  0  0
   23.9097    6.1670   29.7482 O   0  0  0  0  0  0  0  0  0  0  0  0
   24.9546    7.1169   29.5477 C   0  0  0  0  0  0  0  0  0  0  0  0
   25.3567    4.7546   31.1456 C   0  0  0  0  0  0  0  0  0  0  0  0
   25.5076    3.6737   32.0309 C   0  0  0  0  0  0  0  0  0  0  0  0
   26.8469    3.4094   32.6231 N   0  3  0  0  0  0  0  0  0  0  0  0
   26.9382    2.7388   33.6465 O   0  0  0  0  0  0  0  0  0  0  0  0
   27.8303    3.9025   32.0768 O   0  5  0  0  0  0  0  0  0  0  0  0
   24.3855    2.8726   32.3281 C   0  0  0  0  0  0  0  0  0  0  0  0
   23.1530    3.1840   31.7378 C   0  0  0  0  0  0  0  0  0  0  0  0
   24.5282    1.8156   33.2068 O   0  0  0  0  0  0  0  0  0  0  0  0
   23.6287    0.7111   33.1397 C   0  0  0  0  0  0  0  0  0  0  0  0
   24.9529   10.7212   29.6747 H   0  0  0  0  0  0  0  0  0  0  0  0
   24.6453   11.6807   31.1617 H   0  0  0  0  0  0  0  0  0  0  0  0
   24.2404    9.9311   31.1218 H   0  0  0  0  0  0  0  0  0  0  0  0
   22.9087   12.1220   29.4334 H   0  0  0  0  0  0  0  0  0  0  0  0
   22.5038   10.3724   29.3935 H   0  0  0  0  0  0  0  0  0  0  0  0
   18.9983    7.6732   32.0177 H   0  0  0  0  0  0  0  0  0  0  0  0
   20.1018    7.5355   33.4284 H   0  0  0  0  0  0  0  0  0  0  0  0
   18.1313   10.3843   33.9991 H   0  0  0  0  0  0  0  0  0  0  0  0
   22.3439    6.8922   30.7190 H   0  0  0  0  0  0  0  0  0  0  0  0
   21.0651    3.6354   30.2472 H   0  0  0  0  0  0  0  0  0  0  0  0
   21.8008    4.9201   29.2299 H   0  0  0  0  0  0  0  0  0  0  0  0
   24.6089    7.9035   28.8608 H   0  0  0  0  0  0  0  0  0  0  0  0
   25.2301    7.5678   30.5125 H   0  0  0  0  0  0  0  0  0  0  0  0
   25.8310    6.6119   29.1154 H   0  0  0  0  0  0  0  0  0  0  0  0
   26.2213    5.3507   30.8936 H   0  0  0  0  0  0  0  0  0  0  0  0
   22.2923    2.5690   31.9553 H   0  0  0  0  0  0  0  0  0  0  0  0
   23.8955   -0.0271   33.9104 H   0  0  0  0  0  0  0  0  0  0  0  0
   22.6011    1.0644   33.3106 H   0  0  0  0  0  0  0  0  0  0  0  0
   23.6953    0.2440   32.1460 H   0  0  0  0  0  0  0  0  0  0  0  0
  1  2  1  0  0  0  0
  2  3  1  0  0  0  0
  3  4  1  0  0  0  0
  4 10  2  0  0  0  0
  4  5  1  0  0  0  0
  5  6  2  0  0  0  0
  6  7  1  0  0  0  0
  6 13  1  0  0  0  0
  7  8  1  0  0  0  0
  8  9  2  0  0  0  0
  8 10  1  0  0  0  0
 10 11  1  0  0  0  0
 11 12  3  0  0  0  0
 13 14  1  0  0  0  0
 14 15  2  0  0  0  0
 14 16  1  0  0  0  0
 16 17  1  0  0  0  0
 17 27  2  0  0  0  0
 17 18  1  0  0  0  0
 18 19  1  0  0  0  0
 18 21  2  0  0  0  0
 19 20  1  0  0  0  0
 21 22  1  0  0  0  0
 22 23  1  0  0  0  0
 22 26  2  0  0  0  0
 23 24  2  0  0  0  0
 23 25  1  0  0  0  0
 26 27  1  0  0  0  0
 26 28  1  0  0  0  0
 28 29  1  0  0  0  0
  1 30  1  0  0  0  0
  1 31  1  0  0  0  0
  1 32  1  0  0  0  0
  2 33  1  0  0  0  0
  2 34  1  0  0  0  0
  7 35  1  0  0  0  0
  7 36  1  0  0  0  0
  9 37  1  0  0  0  0
 13 38  1  0  0  0  0
 16 39  1  0  0  0  0
 16 40  1  0  0  0  0
 20 41  1  0  0  0  0
 20 42  1  0  0  0  0
 20 43  1  0  0  0  0
 21 44  1  0  0  0  0
 27 45  1  0  0  0  0
 29 46  1  0  0  0  0
 29 47  1  0  0  0  0
 29 48  1  0  0  0  0
M  CHG  2  23   1  25  -1
M  END
> <i_m_stars>
0

> <r_user_dG.exp>
-9.740725

$$$$
18639-1
  -OEChem-05162309453D
 Structure written by MMmdl.
 48 49  0     1  0  0  0  0  0999 V2000
   24.2764   10.8583   30.5311 C   0  0  0  0  0  0  0  0  0  0  0  0
   22.8724   11.1948   30.0242 C   0  0  0  0  0  0  0  0  0  0  0  0
   21.9935   11.3729   31.1346 O   0  0  0  0  0  0  0  0  0  0  0  0
   21.3005   10.2943   31.6577 C   0  0  0  0  0  0  0  0  0  0  0  0
   21.6713    9.0502   31.2482 N   0  0  0  0  0  0  0  0  0  0  0  0
   20.9501    8.0000   31.6666 C   0  0  0  0  0  0  0  0  0  0  0  0
   19.8665    8.1184   32.5257 C   0  0  0  0  0  0  0  0  0  0  0  0
   19.4926    9.3843   32.9417 C   0  0  0  0  0  0  0  0  0  0  0  0
   18.3660    9.4440   33.7525 N   0  0  0  0  0  0  0  0  0  0  0  0
   20.2180   10.5087   32.5170 C   0  0  3  0  0  0  0  0  0  0  0  0
   19.8684   11.8729   32.8958 C   0  0  0  0  0  0  0  0  0  0  0  0
   19.5992   12.9596   33.1898 N   0  0  0  0  0  0  0  0  0  0  0  0
   21.4272    6.8285   31.1136 N   0  0  0  0  0  0  0  0  0  0  0  0
   20.8583    5.6230   31.0220 C   0  0  0  0  0  0  0  0  0  0  0  0
   19.7390    5.3452   31.4465 O   0  0  0  0  0  0  0  0  0  0  0  0
   21.6500    4.5669   30.2607 C   0  0  0  0  0  0  0  0  0  0  0  0
   23.0147    4.2719   30.8751 C   0  0  0  0  0  0  0  0  0  0  0  0
   24.1184    5.0810   30.5810 C   0  0  0  0  0  0  0  0  0  0  0  0
   23.9097    6.1670   29.7482 O   0  0  0  0  0  0  0  0  0  0  0  0
   24.9546    7.1169   29.5477 C   0  0  0  0  0  0  0  0  0  0  0  0
   25.3567    4.7546   31.1456 C   0  0  0  0  0  0  0  0  0  0  0  0
   25.5076    3.6737   32.0309 C   0  0  0  0  0  0  0  0  0  0  0  0
   26.8469    3.4094   32.6231 N   0  3  0  0  0  0  0  0  0  0  0  0
   26.9382    2.7388   33.6465 O   0  0  0  0  0  0  0  0  0  0  0  0
   27.8303    3.9025   32.0768 O   0  5  0  0  0  0  0  0  0  0  0  0
   24.3855    2.8726   32.3281 C   0  0  0  0  0  0  0  0  0  0  0  0
   23.1530    3.1840   31.7378 C   0  0  0  0  0  0  0  0  0  0  0  0
   24.5282    1.8156   33.2068 O   0  0  0  0  0  0  0  0  0  0  0  0
   23.6287    0.7111   33.1397 C   0  0  0  0  0  0  0  0  0  0  0  0
   24.9529   10.7212   29.6747 H   0  0  0  0  0  0  0  0  0  0  0  0
   24.6453   11.6807   31.1617 H   0  0  0  0  0  0  0  0  0  0  0  0
   24.2404    9.9311   31.1218 H   0  0  0  0  0  0  0  0  0  0  0  0
   22.9087   12.1220   29.4334 H   0  0  0  0  0  0  0  0  0  0  0  0
   22.5038   10.3724   29.3935 H   0  0  0  0  0  0  0  0  0  0  0  0
   19.3284    7.2442   32.8613 H   0  0  0  0  0  0  0  0  0  0  0  0
   18.1807   10.3958   33.9969 H   0  0  0  0  0  0  0  0  0  0  0  0
   17.5811    9.0674   33.2605 H   0  0  0  0  0  0  0  0  0  0  0  0
   20.8809   10.4247   33.3908 H   0  0  0  0  0  0  0  0  0  0  0  0
   21.0651    3.6354   30.2472 H   0  0  0  0  0  0  0  0  0  0  0  0
   21.8008    4.9201   29.2299 H   0  0  0  0  0  0  0  0  0  0  0  0
   24.6089    7.9035   28.8608 H   0  0  0  0  0  0  0  0  0  0  0  0
   25.2301    7.5678   30.5125 H   0  0  0  0  0  0  0  0  0  0  0  0
   25.8310    6.6119   29.1154 H   0  0  0  0  0  0  0  0  0  0  0  0
   26.2213    5.3507   30.8936 H   0  0  0  0  0  0  0  0  0  0  0  0
   22.2923    2.5690   31.9553 H   0  0  0  0  0  0  0  0  0  0  0  0
   23.8955   -0.0271   33.9104 H   0  0  0  0  0  0  0  0  0  0  0  0
   22.6011    1.0644   33.3106 H   0  0  0  0  0  0  0  0  0  0  0  0
   23.6953    0.2440   32.1460 H   0  0  0  0  0  0  0  0  0  0  0  0
  1  2  1  0  0  0  0
  2  3  1  0  0  0  0
  3  4  1  0  0  0  0
  4 10  1  0  0  0  0
  4  5  2  0  0  0  0
  5  6  1  0  0  0  0
  6  7  1  0  0  0  0
  6 13  2  0  0  0  0
  7  8  2  0  0  0  0
  8  9  1  0  0  0  0
  8 10  1  0  0  0  0
 10 11  1  0  0  0  0
 11 12  3  0  0  0  0
 13 14  1  0  0  0  0
 14 15  2  0  0  0  0
 14 16  1  0  0  0  0
 16 17  1  0  0  0  0
 17 27  2  0  0  0  0
 17 18  1  0  0  0  0
 18 19  1  0  0  0  0
 18 21  2  0  0  0  0
 19 20  1  0  0  0  0
 21 22  1  0  0  0  0
 22 23  1  0  0  0  0
 22 26  2  0  0  0  0
 23 24  2  0  0  0  0
 23 25  1  0  0  0  0
 26 27  1  0  0  0  0
 26 28  1  0  0  0  0
 28 29  1  0  0  0  0
  1 30  1  0  0  0  0
  1 31  1  0  0  0  0
  1 32  1  0  0  0  0
  2 33  1  0  0  0  0
  2 34  1  0  0  0  0
  7 35  1  0  0  0  0
  9 36  1  0  0  0  0
  9 37  1  0  0  0  0
 10 38  1  0  0  0  0
 16 39  1  0  0  0  0
 16 40  1  0  0  0  0
 20 41  1  0  0  0  0
 20 42  1  0  0  0  0
 20 43  1  0  0  0  0
 21 44  1  0  0  0  0
 27 45  1  0  0  0  0
 29 46  1  0  0  0  0
 29 47  1  0  0  0  0
 29 48  1  0  0  0  0
M  CHG  2  23   1  25  -1
M  END
> <i_m_stars>
0

> <r_user_dG.exp>
-9.740725

$$$$
18639-1
  -OEChem-05162309453D
 Structure written by MMmdl.
 48 49  0     0  0  0  0  0  0999 V2000
   24.2764   10.8583   30.5311 C   0  0  0  0  0  0  0  0  0  0  0  0
   22.8724   11.1948   30.0242 C   0  0  0  0  0  0  0  0  0  0  0  0
   21.9935   11.3729   31.1346 O   0  0  0  0  0  0  0  0  0  0  0  0
   21.3005   10.2943   31.6577 C   0  0  0  0  0  0  0  0  0  0  0  0
   21.6713    9.0502   31.2482 N   0  0  0  0  0  0  0  0  0  0  0  0
   20.9501    8.0000   31.6666 C   0  0  0  0  0  0  0  0  0  0  0  0
   19.8665    8.1184   32.5257 C   0  0  0  0  0  0  0  0  0  0  0  0
   19.4926    9.3843   32.9417 C   0  0  0  0  0  0  0  0  0  0  0  0
   18.3660    9.4440   33.7525 N   0  0  0  0  0  0  0  0  0  0  0  0
   20.2180   10.5087   32.5170 C   0  0  0  0  0  0  0  0  0  0  0  0
   19.8684   11.8729   32.8958 C   0  0  0  0  0  0  0  0  0  0  0  0
   19.5992   12.9596   33.1898 N   0  0  0  0  0  0  0  0  0  0  0  0
   21.4272    6.8285   31.1136 N   0  0  0  0  0  0  0  0  0  0  0  0
   20.8583    5.6230   31.0220 C   0  0  0  0  0  0  0  0  0  0  0  0
   19.7390    5.3452   31.4465 O   0  0  0  0  0  0  0  0  0  0  0  0
   21.6500    4.5669   30.2607 C   0  0  0  0  0  0  0  0  0  0  0  0
   23.0147    4.2719   30.8751 C   0  0  0  0  0  0  0  0  0  0  0  0
   24.1184    5.0810   30.5810 C   0  0  0  0  0  0  0  0  0  0  0  0
   23.9097    6.1670   29.7482 O   0  0  0  0  0  0  0  0  0  0  0  0
   24.9546    7.1169   29.5477 C   0  0  0  0  0  0  0  0  0  0  0  0
   25.3567    4.7546   31.1456 C   0  0  0  0  0  0  0  0  0  0  0  0
   25.5076    3.6737   32.0309 C   0  0  0  0  0  0  0  0  0  0  0  0
   26.8469    3.4094   32.6231 N   0  3  0  0  0  0  0  0  0  0  0  0
   26.9382    2.7388   33.6465 O   0  0  0  0  0  0  0  0  0  0  0  0
   27.8303    3.9025   32.0768 O   0  5  0  0  0  0  0  0  0  0  0  0
   24.3855    2.8726   32.3281 C   0  0  0  0  0  0  0  0  0  0  0  0
   23.1530    3.1840   31.7378 C   0  0  0  0  0  0  0  0  0  0  0  0
   24.5282    1.8156   33.2068 O   0  0  0  0  0  0  0  0  0  0  0  0
   23.6287    0.7111   33.1397 C   0  0  0  0  0  0  0  0  0  0  0  0
   24.9529   10.7212   29.6747 H   0  0  0  0  0  0  0  0  0  0  0  0
   24.6453   11.6807   31.1617 H   0  0  0  0  0  0  0  0  0  0  0  0
   24.2404    9.9311   31.1218 H   0  0  0  0  0  0  0  0  0  0  0  0
   22.9087   12.1220   29.4334 H   0  0  0  0  0  0  0  0  0  0  0  0
   22.5038   10.3724   29.3935 H   0  0  0  0  0  0  0  0  0  0  0  0
   18.9983    7.6732   32.0177 H   0  0  0  0  0  0  0  0  0  0  0  0
   20.1018    7.5355   33.4284 H   0  0  0  0  0  0  0  0  0  0  0  0
   18.1807   10.3958   33.9969 H   0  0  0  0  0  0  0  0  0  0  0  0
   17.5811    9.0674   33.2605 H   0  0  0  0  0  0  0  0  0  0  0  0
   21.0651    3.6354   30.2472 H   0  0  0  0  0  0  0  0  0  0  0  0
   21.8008    4.9201   29.2299 H   0  0  0  0  0  0  0  0  0  0  0  0
   24.6089    7.9035   28.8608 H   0  0  0  0  0  0  0  0  0  0  0  0
   25.2301    7.5678   30.5125 H   0  0  0  0  0  0  0  0  0  0  0  0
   25.8310    6.6119   29.1154 H   0  0  0  0  0  0  0  0  0  0  0  0
   26.2213    5.3507   30.8936 H   0  0  0  0  0  0  0  0  0  0  0  0
   22.2923    2.5690   31.9553 H   0  0  0  0  0  0  0  0  0  0  0  0
   23.8955   -0.0271   33.9104 H   0  0  0  0  0  0  0  0  0  0  0  0
   22.6011    1.0644   33.3106 H   0  0  0  0  0  0  0  0  0  0  0  0
   23.6953    0.2440   32.1460 H   0  0  0  0  0  0  0  0  0  0  0  0
  1  2  1  0  0  0  0
  2  3  1  0  0  0  0
  3  4  1  0  0  0  0
  4 10  1  0  0  0  0
  4  5  2  0  0  0  0
  5  6  1  0  0  0  0
  6  7  1  0  0  0  0
  6 13  2  0  0  0  0
  7  8  1  0  0  0  0
  8  9  1  0  0  0  0
  8 10  2  0  0  0  0
 10 11  1  0  0  0  0
 11 12  3  0  0  0  0
 13 14  1  0  0  0  0
 14 15  2  0  0  0  0
 14 16  1  0  0  0  0
 16 17  1  0  0  0  0
 17 27  2  0  0  0  0
 17 18  1  0  0  0  0
 18 19  1  0  0  0  0
 18 21  2  0  0  0  0
 19 20  1  0  0  0  0
 21 22  1  0  0  0  0
 22 23  1  0  0  0  0
 22 26  2  0  0  0  0
 23 24  2  0  0  0  0
 23 25  1  0  0  0  0
 26 27  1  0  0  0  0
 26 28  1  0  0  0  0
 28 29  1  0  0  0  0
  1 30  1  0  0  0  0
  1 31  1  0  0  0  0
  1 32  1  0  0  0  0
  2 33  1  0  0  0  0
  2 34  1  0  0  0  0
  7 35  1  0  0  0  0
  7 36  1  0  0  0  0
  9 37  1  0  0  0  0
  9 38  1  0  0  0  0
 16 39  1  0  0  0  0
 16 40  1  0  0  0  0
 20 41  1  0  0  0  0
 20 42  1  0  0  0  0
 20 43  1  0  0  0  0
 21 44  1  0  0  0  0
 27 45  1  0  0  0  0
 29 46  1  0  0  0  0
 29 47  1  0  0  0  0
 29 48  1  0  0  0  0
M  CHG  2  23   1  25  -1
M  END
> <i_m_stars>
0

> <r_user_dG.exp>
-9.740725

$$$$
18639-1
  -OEChem-05162309453D
 Structure written by MMmdl.
 48 49  0     0  0  0  0  0  0999 V2000
   24.2764   10.8583   30.5311 C   0  0  0  0  0  0  0  0  0  0  0  0
   22.8724   11.1948   30.0242 C   0  0  0  0  0  0  0  0  0  0  0  0
   21.9935   11.3729   31.1346 O   0  0  0  0  0  0  0  0  0  0  0  0
   21.3005   10.2943   31.6577 C   0  0  0  0  0  0  0  0  0  0  0  0
   21.6713    9.0502   31.2482 N   0  0  0  0  0  0  0  0  0  0  0  0
   20.9501    8.0000   31.6666 C   0  0  0  0  0  0  0  0  0  0  0  0
   19.8665    8.1184   32.5257 C   0  0  0  0  0  0  0  0  0  0  0  0
   19.4926    9.3843   32.9417 C   0  0  0  0  0  0  0  0  0  0  0  0
   18.3660    9.4440   33.7525 N   0  0  0  0  0  0  0  0  0  0  0  0
   20.2180   10.5087   32.5170 C   0  0  0  0  0  0  0  0  0  0  0  0
   19.8684   11.8729   32.8958 C   0  0  0  0  0  0  0  0  0  0  0  0
   19.5992   12.9596   33.1898 N   0  0  0  0  0  0  0  0  0  0  0  0
   21.4272    6.8285   31.1136 N   0  0  0  0  0  0  0  0  0  0  0  0
   20.8583    5.6230   31.0220 C   0  0  0  0  0  0  0  0  0  0  0  0
   19.7390    5.3452   31.4465 O   0  0  0  0  0  0  0  0  0  0  0  0
   21.6500    4.5669   30.2607 C   0  0  0  0  0  0  0  0  0  0  0  0
   23.0147    4.2719   30.8751 C   0  0  0  0  0  0  0  0  0  0  0  0
   24.1184    5.0810   30.5810 C   0  0  0  0  0  0  0  0  0  0  0  0
   23.9097    6.1670   29.7482 O   0  0  0  0  0  0  0  0  0  0  0  0
   24.9546    7.1169   29.5477 C   0  0  0  0  0  0  0  0  0  0  0  0
   25.3567    4.7546   31.1456 C   0  0  0  0  0  0  0  0  0  0  0  0
   25.5076    3.6737   32.0309 C   0  0  0  0  0  0  0  0  0  0  0  0
   26.8469    3.4094   32.6231 N   0  3  0  0  0  0  0  0  0  0  0  0
   26.9382    2.7388   33.6465 O   0  0  0  0  0  0  0  0  0  0  0  0
   27.8303    3.9025   32.0768 O   0  5  0  0  0  0  0  0  0  0  0  0
   24.3855    2.8726   32.3281 C   0  0  0  0  0  0  0  0  0  0  0  0
   23.1530    3.1840   31.7378 C   0  0  0  0  0  0  0  0  0  0  0  0
   24.5282    1.8156   33.2068 O   0  0  0  0  0  0  0  0  0  0  0  0
   23.6287    0.7111   33.1397 C   0  0  0  0  0  0  0  0  0  0  0  0
   24.9529   10.7212   29.6747 H   0  0  0  0  0  0  0  0  0  0  0  0
   24.6453   11.6807   31.1617 H   0  0  0  0  0  0  0  0  0  0  0  0
   24.2404    9.9311   31.1218 H   0  0  0  0  0  0  0  0  0  0  0  0
   22.9087   12.1220   29.4334 H   0  0  0  0  0  0  0  0  0  0  0  0
   22.5038   10.3724   29.3935 H   0  0  0  0  0  0  0  0  0  0  0  0
   22.4623    8.9225   30.6499 H   0  0  0  0  0  0  0  0  0  0  0  0
   18.9983    7.6732   32.0177 H   0  0  0  0  0  0  0  0  0  0  0  0
   20.1018    7.5355   33.4284 H   0  0  0  0  0  0  0  0  0  0  0  0
   18.1313   10.3843   33.9991 H   0  0  0  0  0  0  0  0  0  0  0  0
   21.0651    3.6354   30.2472 H   0  0  0  0  0  0  0  0  0  0  0  0
   21.8008    4.9201   29.2299 H   0  0  0  0  0  0  0  0  0  0  0  0
   24.6089    7.9035   28.8608 H   0  0  0  0  0  0  0  0  0  0  0  0
   25.2301    7.5678   30.5125 H   0  0  0  0  0  0  0  0  0  0  0  0
   25.8310    6.6119   29.1154 H   0  0  0  0  0  0  0  0  0  0  0  0
   26.2213    5.3507   30.8936 H   0  0  0  0  0  0  0  0  0  0  0  0
   22.2923    2.5690   31.9553 H   0  0  0  0  0  0  0  0  0  0  0  0
   23.8955   -0.0271   33.9104 H   0  0  0  0  0  0  0  0  0  0  0  0
   22.6011    1.0644   33.3106 H   0  0  0  0  0  0  0  0  0  0  0  0
   23.6953    0.2440   32.1460 H   0  0  0  0  0  0  0  0  0  0  0  0
  1  2  1  0  0  0  0
  2  3  1  0  0  0  0
  3  4  1  0  0  0  0
  4 10  2  0  0  0  0
  4  5  1  0  0  0  0
  5  6  1  0  0  0  0
  6  7  1  0  0  0  0
  6 13  2  0  0  0  0
  7  8  1  0  0  0  0
  8  9  2  0  0  0  0
  8 10  1  0  0  0  0
 10 11  1  0  0  0  0
 11 12  3  0  0  0  0
 13 14  1  0  0  0  0
 14 15  2  0  0  0  0
 14 16  1  0  0  0  0
 16 17  1  0  0  0  0
 17 27  2  0  0  0  0
 17 18  1  0  0  0  0
 18 19  1  0  0  0  0
 18 21  2  0  0  0  0
 19 20  1  0  0  0  0
 21 22  1  0  0  0  0
 22 23  1  0  0  0  0
 22 26  2  0  0  0  0
 23 24  2  0  0  0  0
 23 25  1  0  0  0  0
 26 27  1  0  0  0  0
 26 28  1  0  0  0  0
 28 29  1  0  0  0  0
  1 30  1  0  0  0  0
  1 31  1  0  0  0  0
  1 32  1  0  0  0  0
  2 33  1  0  0  0  0
  2 34  1  0  0  0  0
  5 35  1  0  0  0  0
  7 36  1  0  0  0  0
  7 37  1  0  0  0  0
  9 38  1  0  0  0  0
 16 39  1  0  0  0  0
 16 40  1  0  0  0  0
 20 41  1  0  0  0  0
 20 42  1  0  0  0  0
 20 43  1  0  0  0  0
 21 44  1  0  0  0  0
 27 45  1  0  0  0  0
 29 46  1  0  0  0  0
 29 47  1  0  0  0  0
 29 48  1  0  0  0  0
M  CHG  2  23   1  25  -1
M  END
> <i_m_stars>
0

> <r_user_dG.exp>
-9.740725

$$$$
18639-1
  -OEChem-05162309453D
 Structure written by MMmdl.
 48 49  0     1  0  0  0  0  0999 V2000
   24.2764   10.8583   30.5311 C   0  0  0  0  0  0  0  0  0  0  0  0
   22.8724   11.1948   30.0242 C   0  0  0  0  0  0  0  0  0  0  0  0
   21.9935   11.3729   31.1346 O   0  0  0  0  0  0  0  0  0  0  0  0
   21.3005   10.2943   31.6577 C   0  0  0  0  0  0  0  0  0  0  0  0
   21.6713    9.0502   31.2482 N   0  0  0  0  0  0  0  0  0  0  0  0
   20.9501    8.0000   31.6666 C   0  0  0  0  0  0  0  0  0  0  0  0
   19.8665    8.1184   32.5257 C   0  0  0  0  0  0  0  0  0  0  0  0
   19.4926    9.3843   32.9417 C   0  0  0  0  0  0  0  0  0  0  0  0
   18.3660    9.4440   33.7525 N   0  0  0  0  0  0  0  0  0  0  0  0
   20.2180   10.5087   32.5170 C   0  0  3  0  0  0  0  0  0  0  0  0
   19.8684   11.8729   32.8958 C   0  0  0  0  0  0  0  0  0  0  0  0
   19.5992   12.9596   33.1898 N   0  0  0  0  0  0  0  0  0  0  0  0
   21.4272    6.8285   31.1136 N   0  0  0  0  0  0  0  0  0  0  0  0
   20.8583    5.6230   31.0220 C   0  0  0  0  0  0  0  0  0  0  0  0
   19.7390    5.3452   31.4465 O   0  0  0  0  0  0  0  0  0  0  0  0
   21.6500    4.5669   30.2607 C   0  0  0  0  0  0  0  0  0  0  0  0
   23.0147    4.2719   30.8751 C   0  0  0  0  0  0  0  0  0  0  0  0
   24.1184    5.0810   30.5810 C   0  0  0  0  0  0  0  0  0  0  0  0
   23.9097    6.1670   29.7482 O   0  0  0  0  0  0  0  0  0  0  0  0
   24.9546    7.1169   29.5477 C   0  0  0  0  0  0  0  0  0  0  0  0
   25.3567    4.7546   31.1456 C   0  0  0  0  0  0  0  0  0  0  0  0
   25.5076    3.6737   32.0309 C   0  0  0  0  0  0  0  0  0  0  0  0
   26.8469    3.4094   32.6231 N   0  3  0  0  0  0  0  0  0  0  0  0
   26.9382    2.7388   33.6465 O   0  0  0  0  0  0  0  0  0  0  0  0
   27.8303    3.9025   32.0768 O   0  5  0  0  0  0  0  0  0  0  0  0
   24.3855    2.8726   32.3281 C   0  0  0  0  0  0  0  0  0  0  0  0
   23.1530    3.1840   31.7378 C   0  0  0  0  0  0  0  0  0  0  0  0
   24.5282    1.8156   33.2068 O   0  0  0  0  0  0  0  0  0  0  0  0
   23.6287    0.7111   33.1397 C   0  0  0  0  0  0  0  0  0  0  0  0
   24.9529   10.7212   29.6747 H   0  0  0  0  0  0  0  0  0  0  0  0
   24.6453   11.6807   31.1617 H   0  0  0  0  0  0  0  0  0  0  0  0
   24.2404    9.9311   31.1218 H   0  0  0  0  0  0  0  0  0  0  0  0
   22.9087   12.1220   29.4334 H   0  0  0  0  0  0  0  0  0  0  0  0
   22.5038   10.3724   29.3935 H   0  0  0  0  0  0  0  0  0  0  0  0
   19.3284    7.2442   32.8613 H   0  0  0  0  0  0  0  0  0  0  0  0
   18.1313   10.3843   33.9991 H   0  0  0  0  0  0  0  0  0  0  0  0
   20.8809   10.4247   33.3908 H   0  0  0  0  0  0  0  0  0  0  0  0
   19.5499    4.4315   31.2679 H   0  0  0  0  0  0  0  0  0  0  0  0
   21.0651    3.6354   30.2472 H   0  0  0  0  0  0  0  0  0  0  0  0
   21.8008    4.9201   29.2299 H   0  0  0  0  0  0  0  0  0  0  0  0
   24.6089    7.9035   28.8608 H   0  0  0  0  0  0  0  0  0  0  0  0
   25.2301    7.5678   30.5125 H   0  0  0  0  0  0  0  0  0  0  0  0
   25.8310    6.6119   29.1154 H   0  0  0  0  0  0  0  0  0  0  0  0
   26.2213    5.3507   30.8936 H   0  0  0  0  0  0  0  0  0  0  0  0
   22.2923    2.5690   31.9553 H   0  0  0  0  0  0  0  0  0  0  0  0
   23.8955   -0.0271   33.9104 H   0  0  0  0  0  0  0  0  0  0  0  0
   22.6011    1.0644   33.3106 H   0  0  0  0  0  0  0  0  0  0  0  0
   23.6953    0.2440   32.1460 H   0  0  0  0  0  0  0  0  0  0  0  0
  1  2  1  0  0  0  0
  2  3  1  0  0  0  0
  3  4  1  0  0  0  0
  4 10  1  0  0  0  0
  4  5  2  0  0  0  0
  5  6  1  0  0  0  0
  6  7  2  0  0  0  0
  6 13  1  0  0  0  0
  7  8  1  0  0  0  0
  8  9  2  0  0  0  0
  8 10  1  0  0  0  0
 10 11  1  0  0  0  0
 11 12  3  0  0  0  0
 13 14  2  0  0  0  0
 14 15  1  0  0  0  0
 14 16  1  0  0  0  0
 16 17  1  0  0  0  0
 17 27  2  0  0  0  0
 17 18  1  0  0  0  0
 18 19  1  0  0  0  0
 18 21  2  0  0  0  0
 19 20  1  0  0  0  0
 21 22  1  0  0  0  0
 22 23  1  0  0  0  0
 22 26  2  0  0  0  0
 23 24  2  0  0  0  0
 23 25  1  0  0  0  0
 26 27  1  0  0  0  0
 26 28  1  0  0  0  0
 28 29  1  0  0  0  0
  1 30  1  0  0  0  0
  1 31  1  0  0  0  0
  1 32  1  0  0  0  0
  2 33  1  0  0  0  0
  2 34  1  0  0  0  0
  7 35  1  0  0  0  0
  9 36  1  0  0  0  0
 10 37  1  0  0  0  0
 15 38  1  0  0  0  0
 16 39  1  0  0  0  0
 16 40  1  0  0  0  0
 20 41  1  0  0  0  0
 20 42  1  0  0  0  0
 20 43  1  0  0  0  0
 21 44  1  0  0  0  0
 27 45  1  0  0  0  0
 29 46  1  0  0  0  0
 29 47  1  0  0  0  0
 29 48  1  0  0  0  0
M  CHG  2  23   1  25  -1
M  END
> <i_m_stars>
0

> <r_user_dG.exp>
-9.740725

$$$$
18639-1
  -OEChem-05162309453D
 Structure written by MMmdl.
 48 49  0     0  0  0  0  0  0999 V2000
   24.2764   10.8583   30.5311 C   0  0  0  0  0  0  0  0  0  0  0  0
   22.8724   11.1948   30.0242 C   0  0  0  0  0  0  0  0  0  0  0  0
   21.9935   11.3729   31.1346 O   0  0  0  0  0  0  0  0  0  0  0  0
   21.3005   10.2943   31.6577 C   0  0  0  0  0  0  0  0  0  0  0  0
   21.6713    9.0502   31.2482 N   0  0  0  0  0  0  0  0  0  0  0  0
   20.9501    8.0000   31.6666 C   0  0  0  0  0  0  0  0  0  0  0  0
   19.8665    8.1184   32.5257 C   0  0  0  0  0  0  0  0  0  0  0  0
   19.4926    9.3843   32.9417 C   0  0  0  0  0  0  0  0  0  0  0  0
   18.3660    9.4440   33.7525 N   0  0  0  0  0  0  0  0  0  0  0  0
   20.2180   10.5087   32.5170 C   0  0  0  0  0  0  0  0  0  0  0  0
   19.8684   11.8729   32.8958 C   0  0  0  0  0  0  0  0  0  0  0  0
   19.5992   12.9596   33.1898 N   0  0  0  0  0  0  0  0  0  0  0  0
   21.4272    6.8285   31.1136 N   0  0  0  0  0  0  0  0  0  0  0  0
   20.8583    5.6230   31.0220 C   0  0  0  0  0  0  0  0  0  0  0  0
   19.7390    5.3452   31.4465 O   0  0  0  0  0  0  0  0  0  0  0  0
   21.6500    4.5669   30.2607 C   0  0  0  0  0  0  0  0  0  0  0  0
   23.0147    4.2719   30.8751 C   0  0  0  0  0  0  0  0  0  0  0  0
   24.1184    5.0810   30.5810 C   0  0  0  0  0  0  0  0  0  0  0  0
   23.9097    6.1670   29.7482 O   0  0  0  0  0  0  0  0  0  0  0  0
   24.9546    7.1169   29.5477 C   0  0  0  0  0  0  0  0  0  0  0  0
   25.3567    4.7546   31.1456 C   0  0  0  0  0  0  0  0  0  0  0  0
   25.5076    3.6737   32.0309 C   0  0  0  0  0  0  0  0  0  0  0  0
   26.8469    3.4094   32.6231 N   0  3  0  0  0  0  0  0  0  0  0  0
   26.9382    2.7388   33.6465 O   0  0  0  0  0  0  0  0  0  0  0  0
   27.8303    3.9025   32.0768 O   0  5  0  0  0  0  0  0  0  0  0  0
   24.3855    2.8726   32.3281 C   0  0  0  0  0  0  0  0  0  0  0  0
   23.1530    3.1840   31.7378 C   0  0  0  0  0  0  0  0  0  0  0  0
   24.5282    1.8156   33.2068 O   0  0  0  0  0  0  0  0  0  0  0  0
   23.6287    0.7111   33.1397 C   0  0  0  0  0  0  0  0  0  0  0  0
   24.9529   10.7212   29.6747 H   0  0  0  0  0  0  0  0  0  0  0  0
   24.6453   11.6807   31.1617 H   0  0  0  0  0  0  0  0  0  0  0  0
   24.2404    9.9311   31.1218 H   0  0  0  0  0  0  0  0  0  0  0  0
   22.9087   12.1220   29.4334 H   0  0  0  0  0  0  0  0  0  0  0  0
   22.5038   10.3724   29.3935 H   0  0  0  0  0  0  0  0  0  0  0  0
   18.9983    7.6732   32.0177 H   0  0  0  0  0  0  0  0  0  0  0  0
   20.1018    7.5355   33.4284 H   0  0  0  0  0  0  0  0  0  0  0  0
   18.1313   10.3843   33.9991 H   0  0  0  0  0  0  0  0  0  0  0  0
   19.5499    4.4315   31.2679 H   0  0  0  0  0  0  0  0  0  0  0  0
   21.0651    3.6354   30.2472 H   0  0  0  0  0  0  0  0  0  0  0  0
   21.8008    4.9201   29.2299 H   0  0  0  0  0  0  0  0  0  0  0  0
   24.6089    7.9035   28.8608 H   0  0  0  0  0  0  0  0  0  0  0  0
   25.2301    7.5678   30.5125 H   0  0  0  0  0  0  0  0  0  0  0  0
   25.8310    6.6119   29.1154 H   0  0  0  0  0  0  0  0  0  0  0  0
   26.2213    5.3507   30.8936 H   0  0  0  0  0  0  0  0  0  0  0  0
   22.2923    2.5690   31.9553 H   0  0  0  0  0  0  0  0  0  0  0  0
   23.8955   -0.0271   33.9104 H   0  0  0  0  0  0  0  0  0  0  0  0
   22.6011    1.0644   33.3106 H   0  0  0  0  0  0  0  0  0  0  0  0
   23.6953    0.2440   32.1460 H   0  0  0  0  0  0  0  0  0  0  0  0
  1  2  1  0  0  0  0
  2  3  1  0  0  0  0
  3  4  1  0  0  0  0
  4 10  2  0  0  0  0
  4  5  1  0  0  0  0
  5  6  2  0  0  0  0
  6  7  1  0  0  0  0
  6 13  1  0  0  0  0
  7  8  1  0  0  0  0
  8  9  2  0  0  0  0
  8 10  1  0  0  0  0
 10 11  1  0  0  0  0
 11 12  3  0  0  0  0
 13 14  2  0  0  0  0
 14 15  1  0  0  0  0
 14 16  1  0  0  0  0
 16 17  1  0  0  0  0
 17 27  2  0  0  0  0
 17 18  1  0  0  0  0
 18 19  1  0  0  0  0
 18 21  2  0  0  0  0
 19 20  1  0  0  0  0
 21 22  1  0  0  0  0
 22 23  1  0  0  0  0
 22 26  2  0  0  0  0
 23 24  2  0  0  0  0
 23 25  1  0  0  0  0
 26 27  1  0  0  0  0
 26 28  1  0  0  0  0
 28 29  1  0  0  0  0
  1 30  1  0  0  0  0
  1 31  1  0  0  0  0
  1 32  1  0  0  0  0
  2 33  1  0  0  0  0
  2 34  1  0  0  0  0
  7 35  1  0  0  0  0
  7 36  1  0  0  0  0
  9 37  1  0  0  0  0
 15 38  1  0  0  0  0
 16 39  1  0  0  0  0
 16 40  1  0  0  0  0
 20 41  1  0  0  0  0
 20 42  1  0  0  0  0
 20 43  1  0  0  0  0
 21 44  1  0  0  0  0
 27 45  1  0  0  0  0
 29 46  1  0  0  0  0
 29 47  1  0  0  0  0
 29 48  1  0  0  0  0
M  CHG  2  23   1  25  -1
M  END
> <i_m_stars>
0

> <r_user_dG.exp>
-9.740725

$$$$
18639-1
  -OEChem-05162309453D
 Structure written by MMmdl.
 48 49  0     0  0  0  0  0  0999 V2000
   24.2764   10.8583   30.5311 C   0  0  0  0  0  0  0  0  0  0  0  0
   22.8724   11.1948   30.0242 C   0  0  0  0  0  0  0  0  0  0  0  0
   21.9935   11.3729   31.1346 O   0  0  0  0  0  0  0  0  0  0  0  0
   21.3005   10.2943   31.6577 C   0  0  0  0  0  0  0  0  0  0  0  0
   21.6713    9.0502   31.2482 N   0  3  0  0  0  0  0  0  0  0  0  0
   20.9501    8.0000   31.6666 C   0  0  0  0  0  0  0  0  0  0  0  0
   19.8665    8.1184   32.5257 C   0  0  0  0  0  0  0  0  0  0  0  0
   19.4926    9.3843   32.9417 C   0  0  0  0  0  0  0  0  0  0  0  0
   18.3660    9.4440   33.7525 N   0  0  0  0  0  0  0  0  0  0  0  0
   20.2180   10.5087   32.5170 C   0  0  0  0  0  0  0  0  0  0  0  0
   19.8684   11.8729   32.8958 C   0  0  0  0  0  0  0  0  0  0  0  0
   19.5992   12.9596   33.1898 N   0  0  0  0  0  0  0  0  0  0  0  0
   21.4272    6.8285   31.1136 N   0  0  0  0  0  0  0  0  0  0  0  0
   20.8583    5.6230   31.0220 C   0  0  0  0  0  0  0  0  0  0  0  0
   19.7390    5.3452   31.4465 O   0  5  0  0  0  0  0  0  0  0  0  0
   21.6500    4.5669   30.2607 C   0  0  0  0  0  0  0  0  0  0  0  0
   23.0147    4.2719   30.8751 C   0  0  0  0  0  0  0  0  0  0  0  0
   24.1184    5.0810   30.5810 C   0  0  0  0  0  0  0  0  0  0  0  0
   23.9097    6.1670   29.7482 O   0  0  0  0  0  0  0  0  0  0  0  0
   24.9546    7.1169   29.5477 C   0  0  0  0  0  0  0  0  0  0  0  0
   25.3567    4.7546   31.1456 C   0  0  0  0  0  0  0  0  0  0  0  0
   25.5076    3.6737   32.0309 C   0  0  0  0  0  0  0  0  0  0  0  0
   26.8469    3.4094   32.6231 N   0  3  0  0  0  0  0  0  0  0  0  0
   26.9382    2.7388   33.6465 O   0  0  0  0  0  0  0  0  0  0  0  0
   27.8303    3.9025   32.0768 O   0  5  0  0  0  0  0  0  0  0  0  0
   24.3855    2.8726   32.3281 C   0  0  0  0  0  0  0  0  0  0  0  0
   23.1530    3.1840   31.7378 C   0  0  0  0  0  0  0  0  0  0  0  0
   24.5282    1.8156   33.2068 O   0  0  0  0  0  0  0  0  0  0  0  0
   23.6287    0.7111   33.1397 C   0  0  0  0  0  0  0  0  0  0  0  0
   24.9529   10.7212   29.6747 H   0  0  0  0  0  0  0  0  0  0  0  0
   24.6453   11.6807   31.1617 H   0  0  0  0  0  0  0  0  0  0  0  0
   24.2404    9.9311   31.1218 H   0  0  0  0  0  0  0  0  0  0  0  0
   22.9087   12.1220   29.4334 H   0  0  0  0  0  0  0  0  0  0  0  0
   22.5038   10.3724   29.3935 H   0  0  0  0  0  0  0  0  0  0  0  0
   22.4623    8.9225   30.6499 H   0  0  0  0  0  0  0  0  0  0  0  0
   19.3284    7.2442   32.8613 H   0  0  0  0  0  0  0  0  0  0  0  0
   18.1807   10.3958   33.9969 H   0  0  0  0  0  0  0  0  0  0  0  0
   17.5811    9.0674   33.2605 H   0  0  0  0  0  0  0  0  0  0  0  0
   21.0651    3.6354   30.2472 H   0  0  0  0  0  0  0  0  0  0  0  0
   21.8008    4.9201   29.2299 H   0  0  0  0  0  0  0  0  0  0  0  0
   24.6089    7.9035   28.8608 H   0  0  0  0  0  0  0  0  0  0  0  0
   25.2301    7.5678   30.5125 H   0  0  0  0  0  0  0  0  0  0  0  0
   25.8310    6.6119   29.1154 H   0  0  0  0  0  0  0  0  0  0  0  0
   26.2213    5.3507   30.8936 H   0  0  0  0  0  0  0  0  0  0  0  0
   22.2923    2.5690   31.9553 H   0  0  0  0  0  0  0  0  0  0  0  0
   23.8955   -0.0271   33.9104 H   0  0  0  0  0  0  0  0  0  0  0  0
   22.6011    1.0644   33.3106 H   0  0  0  0  0  0  0  0  0  0  0  0
   23.6953    0.2440   32.1460 H   0  0  0  0  0  0  0  0  0  0  0  0
  1  2  1  0  0  0  0
  2  3  1  0  0  0  0
  3  4  1  0  0  0  0
  4 10  2  0  0  0  0
  4  5  1  0  0  0  0
  5  6  2  0  0  0  0
  6  7  1  0  0  0  0
  6 13  1  0  0  0  0
  7  8  2  0  0  0  0
  8  9  1  0  0  0  0
  8 10  1  0  0  0  0
 10 11  1  0  0  0  0
 11 12  3  0  0  0  0
 13 14  2  0  0  0  0
 14 15  1  0  0  0  0
 14 16  1  0  0  0  0
 16 17  1  0  0  0  0
 17 27  2  0  0  0  0
 17 18  1  0  0  0  0
 18 19  1  0  0  0  0
 18 21  2  0  0  0  0
 19 20  1  0  0  0  0
 21 22  1  0  0  0  0
 22 23  1  0  0  0  0
 22 26  2  0  0  0  0
 23 24  2  0  0  0  0
 23 25  1  0  0  0  0
 26 27  1  0  0  0  0
 26 28  1  0  0  0  0
 28 29  1  0  0  0  0
  1 30  1  0  0  0  0
  1 31  1  0  0  0  0
  1 32  1  0  0  0  0
  2 33  1  0  0  0  0
  2 34  1  0  0  0  0
  5 35  1  0  0  0  0
  7 36  1  0  0  0  0
  9 37  1  0  0  0  0
  9 38  1  0  0  0  0
 16 39  1  0  0  0  0
 16 40  1  0  0  0  0
 20 41  1  0  0  0  0
 20 42  1  0  0  0  0
 20 43  1  0  0  0  0
 21 44  1  0  0  0  0
 27 45  1  0  0  0  0
 29 46  1  0  0  0  0
 29 47  1  0  0  0  0
 29 48  1  0  0  0  0
M  CHG  4   5   1  15  -1  23   1  25  -1
M  END
> <i_m_stars>
0

> <r_user_dG.exp>
-9.740725

$$$$
18639-1
  -OEChem-05162309453D
 Structure written by MMmdl.
 48 49  0     0  0  0  0  0  0999 V2000
   24.2764   10.8583   30.5311 C   0  0  0  0  0  0  0  0  0  0  0  0
   22.8724   11.1948   30.0242 C   0  0  0  0  0  0  0  0  0  0  0  0
   21.9935   11.3729   31.1346 O   0  0  0  0  0  0  0  0  0  0  0  0
   21.3005   10.2943   31.6577 C   0  0  0  0  0  0  0  0  0  0  0  0
   21.6713    9.0502   31.2482 N   0  0  0  0  0  0  0  0  0  0  0  0
   20.9501    8.0000   31.6666 C   0  0  0  0  0  0  0  0  0  0  0  0
   19.8665    8.1184   32.5257 C   0  0  0  0  0  0  0  0  0  0  0  0
   19.4926    9.3843   32.9417 C   0  0  0  0  0  0  0  0  0  0  0  0
   18.3660    9.4440   33.7525 N   0  0  0  0  0  0  0  0  0  0  0  0
   20.2180   10.5087   32.5170 C   0  0  0  0  0  0  0  0  0  0  0  0
   19.8684   11.8729   32.8958 C   0  0  0  0  0  0  0  0  0  0  0  0
   19.5992   12.9596   33.1898 N   0  0  0  0  0  0  0  0  0  0  0  0
   21.4272    6.8285   31.1136 N   0  3  0  0  0  0  0  0  0  0  0  0
   20.8583    5.6230   31.0220 C   0  0  0  0  0  0  0  0  0  0  0  0
   19.7390    5.3452   31.4465 O   0  5  0  0  0  0  0  0  0  0  0  0
   21.6500    4.5669   30.2607 C   0  0  0  0  0  0  0  0  0  0  0  0
   23.0147    4.2719   30.8751 C   0  0  0  0  0  0  0  0  0  0  0  0
   24.1184    5.0810   30.5810 C   0  0  0  0  0  0  0  0  0  0  0  0
   23.9097    6.1670   29.7482 O   0  0  0  0  0  0  0  0  0  0  0  0
   24.9546    7.1169   29.5477 C   0  0  0  0  0  0  0  0  0  0  0  0
   25.3567    4.7546   31.1456 C   0  0  0  0  0  0  0  0  0  0  0  0
   25.5076    3.6737   32.0309 C   0  0  0  0  0  0  0  0  0  0  0  0
   26.8469    3.4094   32.6231 N   0  3  0  0  0  0  0  0  0  0  0  0
   26.9382    2.7388   33.6465 O   0  0  0  0  0  0  0  0  0  0  0  0
   27.8303    3.9025   32.0768 O   0  5  0  0  0  0  0  0  0  0  0  0
   24.3855    2.8726   32.3281 C   0  0  0  0  0  0  0  0  0  0  0  0
   23.1530    3.1840   31.7378 C   0  0  0  0  0  0  0  0  0  0  0  0
   24.5282    1.8156   33.2068 O   0  0  0  0  0  0  0  0  0  0  0  0
   23.6287    0.7111   33.1397 C   0  0  0  0  0  0  0  0  0  0  0  0
   24.9529   10.7212   29.6747 H   0  0  0  0  0  0  0  0  0  0  0  0
   24.6453   11.6807   31.1617 H   0  0  0  0  0  0  0  0  0  0  0  0
   24.2404    9.9311   31.1218 H   0  0  0  0  0  0  0  0  0  0  0  0
   22.9087   12.1220   29.4334 H   0  0  0  0  0  0  0  0  0  0  0  0
   22.5038   10.3724   29.3935 H   0  0  0  0  0  0  0  0  0  0  0  0
   19.3284    7.2442   32.8613 H   0  0  0  0  0  0  0  0  0  0  0  0
   18.1807   10.3958   33.9969 H   0  0  0  0  0  0  0  0  0  0  0  0
   17.5811    9.0674   33.2605 H   0  0  0  0  0  0  0  0  0  0  0  0
   22.3439    6.8922   30.7190 H   0  0  0  0  0  0  0  0  0  0  0  0
   21.0651    3.6354   30.2472 H   0  0  0  0  0  0  0  0  0  0  0  0
   21.8008    4.9201   29.2299 H   0  0  0  0  0  0  0  0  0  0  0  0
   24.6089    7.9035   28.8608 H   0  0  0  0  0  0  0  0  0  0  0  0
   25.2301    7.5678   30.5125 H   0  0  0  0  0  0  0  0  0  0  0  0
   25.8310    6.6119   29.1154 H   0  0  0  0  0  0  0  0  0  0  0  0
   26.2213    5.3507   30.8936 H   0  0  0  0  0  0  0  0  0  0  0  0
   22.2923    2.5690   31.9553 H   0  0  0  0  0  0  0  0  0  0  0  0
   23.8955   -0.0271   33.9104 H   0  0  0  0  0  0  0  0  0  0  0  0
   22.6011    1.0644   33.3106 H   0  0  0  0  0  0  0  0  0  0  0  0
   23.6953    0.2440   32.1460 H   0  0  0  0  0  0  0  0  0  0  0  0
  1  2  1  0  0  0  0
  2  3  1  0  0  0  0
  3  4  1  0  0  0  0
  4 10  2  0  0  0  0
  4  5  1  0  0  0  0
  5  6  2  0  0  0  0
  6  7  1  0  0  0  0
  6 13  1  0  0  0  0
  7  8  2  0  0  0  0
  8  9  1  0  0  0  0
  8 10  1  0  0  0  0
 10 11  1  0  0  0  0
 11 12  3  0  0  0  0
 13 14  2  0  0  0  0
 14 15  1  0  0  0  0
 14 16  1  0  0  0  0
 16 17  1  0  0  0  0
 17 27  2  0  0  0  0
 17 18  1  0  0  0  0
 18 19  1  0  0  0  0
 18 21  2  0  0  0  0
 19 20  1  0  0  0  0
 21 22  1  0  0  0  0
 22 23  1  0  0  0  0
 22 26  2  0  0  0  0
 23 24  2  0  0  0  0
 23 25  1  0  0  0  0
 26 27  1  0  0  0  0
 26 28  1  0  0  0  0
 28 29  1  0  0  0  0
  1 30  1  0  0  0  0
  1 31  1  0  0  0  0
  1 32  1  0  0  0  0
  2 33  1  0  0  0  0
  2 34  1  0  0  0  0
  7 35  1  0  0  0  0
  9 36  1  0  0  0  0
  9 37  1  0  0  0  0
 13 38  1  0  0  0  0
 16 39  1  0  0  0  0
 16 40  1  0  0  0  0
 20 41  1  0  0  0  0
 20 42  1  0  0  0  0
 20 43  1  0  0  0  0
 21 44  1  0  0  0  0
 27 45  1  0  0  0  0
 29 46  1  0  0  0  0
 29 47  1  0  0  0  0
 29 48  1  0  0  0  0
M  CHG  4  13   1  15  -1  23   1  25  -1
M  END
> <i_m_stars>
0

> <r_user_dG.exp>
-9.740725

$$$$
18639-1
  -OEChem-05162309453D
 Structure written by MMmdl.
 48 49  0     0  0  0  0  0  0999 V2000
   24.2764   10.8583   30.5311 C   0  0  0  0  0  0  0  0  0  0  0  0
   22.8724   11.1948   30.0242 C   0  0  0  0  0  0  0  0  0  0  0  0
   21.9935   11.3729   31.1346 O   0  0  0  0  0  0  0  0  0  0  0  0
   21.3005   10.2943   31.6577 C   0  0  0  0  0  0  0  0  0  0  0  0
   21.6713    9.0502   31.2482 N   0  0  0  0  0  0  0  0  0  0  0  0
   20.9501    8.0000   31.6666 C   0  0  0  0  0  0  0  0  0  0  0  0
   19.8665    8.1184   32.5257 C   0  0  0  0  0  0  0  0  0  0  0  0
   19.4926    9.3843   32.9417 C   0  0  0  0  0  0  0  0  0  0  0  0
   18.3660    9.4440   33.7525 N   0  3  0  0  0  0  0  0  0  0  0  0
   20.2180   10.5087   32.5170 C   0  0  0  0  0  0  0  0  0  0  0  0
   19.8684   11.8729   32.8958 C   0  0  0  0  0  0  0  0  0  0  0  0
   19.5992   12.9596   33.1898 N   0  0  0  0  0  0  0  0  0  0  0  0
   21.4272    6.8285   31.1136 N   0  0  0  0  0  0  0  0  0  0  0  0
   20.8583    5.6230   31.0220 C   0  0  0  0  0  0  0  0  0  0  0  0
   19.7390    5.3452   31.4465 O   0  5  0  0  0  0  0  0  0  0  0  0
   21.6500    4.5669   30.2607 C   0  0  0  0  0  0  0  0  0  0  0  0
   23.0147    4.2719   30.8751 C   0  0  0  0  0  0  0  0  0  0  0  0
   24.1184    5.0810   30.5810 C   0  0  0  0  0  0  0  0  0  0  0  0
   23.9097    6.1670   29.7482 O   0  0  0  0  0  0  0  0  0  0  0  0
   24.9546    7.1169   29.5477 C   0  0  0  0  0  0  0  0  0  0  0  0
   25.3567    4.7546   31.1456 C   0  0  0  0  0  0  0  0  0  0  0  0
   25.5076    3.6737   32.0309 C   0  0  0  0  0  0  0  0  0  0  0  0
   26.8469    3.4094   32.6231 N   0  3  0  0  0  0  0  0  0  0  0  0
   26.9382    2.7388   33.6465 O   0  0  0  0  0  0  0  0  0  0  0  0
   27.8303    3.9025   32.0768 O   0  5  0  0  0  0  0  0  0  0  0  0
   24.3855    2.8726   32.3281 C   0  0  0  0  0  0  0  0  0  0  0  0
   23.1530    3.1840   31.7378 C   0  0  0  0  0  0  0  0  0  0  0  0
   24.5282    1.8156   33.2068 O   0  0  0  0  0  0  0  0  0  0  0  0
   23.6287    0.7111   33.1397 C   0  0  0  0  0  0  0  0  0  0  0  0
   24.9529   10.7212   29.6747 H   0  0  0  0  0  0  0  0  0  0  0  0
   24.6453   11.6807   31.1617 H   0  0  0  0  0  0  0  0  0  0  0  0
   24.2404    9.9311   31.1218 H   0  0  0  0  0  0  0  0  0  0  0  0
   22.9087   12.1220   29.4334 H   0  0  0  0  0  0  0  0  0  0  0  0
   22.5038   10.3724   29.3935 H   0  0  0  0  0  0  0  0  0  0  0  0
   19.3284    7.2442   32.8613 H   0  0  0  0  0  0  0  0  0  0  0  0
   18.1807   10.3958   33.9969 H   0  0  0  0  0  0  0  0  0  0  0  0
   17.5811    9.0674   33.2605 H   0  0  0  0  0  0  0  0  0  0  0  0
   18.5251    8.9114   34.5838 H   0  0  0  0  0  0  0  0  0  0  0  0
   21.0651    3.6354   30.2472 H   0  0  0  0  0  0  0  0  0  0  0  0
   21.8008    4.9201   29.2299 H   0  0  0  0  0  0  0  0  0  0  0  0
   24.6089    7.9035   28.8608 H   0  0  0  0  0  0  0  0  0  0  0  0
   25.2301    7.5678   30.5125 H   0  0  0  0  0  0  0  0  0  0  0  0
   25.8310    6.6119   29.1154 H   0  0  0  0  0  0  0  0  0  0  0  0
   26.2213    5.3507   30.8936 H   0  0  0  0  0  0  0  0  0  0  0  0
   22.2923    2.5690   31.9553 H   0  0  0  0  0  0  0  0  0  0  0  0
   23.8955   -0.0271   33.9104 H   0  0  0  0  0  0  0  0  0  0  0  0
   22.6011    1.0644   33.3106 H   0  0  0  0  0  0  0  0  0  0  0  0
   23.6953    0.2440   32.1460 H   0  0  0  0  0  0  0  0  0  0  0  0
  1  2  1  0  0  0  0
  2  3  1  0  0  0  0
  3  4  1  0  0  0  0
  4 10  2  0  0  0  0
  4  5  1  0  0  0  0
  5  6  2  0  0  0  0
  6  7  1  0  0  0  0
  6 13  1  0  0  0  0
  7  8  2  0  0  0  0
  8  9  1  0  0  0  0
  8 10  1  0  0  0  0
 10 11  1  0  0  0  0
 11 12  3  0  0  0  0
 13 14  2  0  0  0  0
 14 15  1  0  0  0  0
 14 16  1  0  0  0  0
 16 17  1  0  0  0  0
 17 27  2  0  0  0  0
 17 18  1  0  0  0  0
 18 19  1  0  0  0  0
 18 21  2  0  0  0  0
 19 20  1  0  0  0  0
 21 22  1  0  0  0  0
 22 23  1  0  0  0  0
 22 26  2  0  0  0  0
 23 24  2  0  0  0  0
 23 25  1  0  0  0  0
 26 27  1  0  0  0  0
 26 28  1  0  0  0  0
 28 29  1  0  0  0  0
  1 30  1  0  0  0  0
  1 31  1  0  0  0  0
  1 32  1  0  0  0  0
  2 33  1  0  0  0  0
  2 34  1  0  0  0  0
  7 35  1  0  0  0  0
  9 36  1  0  0  0  0
  9 37  1  0  0  0  0
  9 38  1  0  0  0  0
 16 39  1  0  0  0  0
 16 40  1  0  0  0  0
 20 41  1  0  0  0  0
 20 42  1  0  0  0  0
 20 43  1  0  0  0  0
 21 44  1  0  0  0  0
 27 45  1  0  0  0  0
 29 46  1  0  0  0  0
 29 47  1  0  0  0  0
 29 48  1  0  0  0  0
M  CHG  4   9   1  15  -1  23   1  25  -1
M  END
> <i_m_stars>
0

> <r_user_dG.exp>
-9.740725

$$$$
18639-1
  -OEChem-05162309453D
 Structure written by MMmdl.
 48 49  0     0  0  0  0  0  0999 V2000
   24.2764   10.8583   30.5311 C   0  0  0  0  0  0  0  0  0  0  0  0
   22.8724   11.1948   30.0242 C   0  0  0  0  0  0  0  0  0  0  0  0
   21.9935   11.3729   31.1346 O   0  0  0  0  0  0  0  0  0  0  0  0
   21.3005   10.2943   31.6577 C   0  0  0  0  0  0  0  0  0  0  0  0
   21.6713    9.0502   31.2482 N   0  0  0  0  0  0  0  0  0  0  0  0
   20.9501    8.0000   31.6666 C   0  0  0  0  0  0  0  0  0  0  0  0
   19.8665    8.1184   32.5257 C   0  0  0  0  0  0  0  0  0  0  0  0
   19.4926    9.3843   32.9417 C   0  0  0  0  0  0  0  0  0  0  0  0
   18.3660    9.4440   33.7525 N   0  3  0  0  0  0  0  0  0  0  0  0
   20.2180   10.5087   32.5170 C   0  0  0  0  0  0  0  0  0  0  0  0
   19.8684   11.8729   32.8958 C   0  0  0  0  0  0  0  0  0  0  0  0
   19.5992   12.9596   33.1898 N   0  0  0  0  0  0  0  0  0  0  0  0
   21.4272    6.8285   31.1136 N   0  0  0  0  0  0  0  0  0  0  0  0
   20.8583    5.6230   31.0220 C   0  0  0  0  0  0  0  0  0  0  0  0
   19.7390    5.3452   31.4465 O   0  5  0  0  0  0  0  0  0  0  0  0
   21.6500    4.5669   30.2607 C   0  0  0  0  0  0  0  0  0  0  0  0
   23.0147    4.2719   30.8751 C   0  0  0  0  0  0  0  0  0  0  0  0
   24.1184    5.0810   30.5810 C   0  0  0  0  0  0  0  0  0  0  0  0
   23.9097    6.1670   29.7482 O   0  0  0  0  0  0  0  0  0  0  0  0
   24.9546    7.1169   29.5477 C   0  0  0  0  0  0  0  0  0  0  0  0
   25.3567    4.7546   31.1456 C   0  0  0  0  0  0  0  0  0  0  0  0
   25.5076    3.6737   32.0309 C   0  0  0  0  0  0  0  0  0  0  0  0
   26.8469    3.4094   32.6231 N   0  3  0  0  0  0  0  0  0  0  0  0
   26.9382    2.7388   33.6465 O   0  0  0  0  0  0  0  0  0  0  0  0
   27.8303    3.9025   32.0768 O   0  5  0  0  0  0  0  0  0  0  0  0
   24.3855    2.8726   32.3281 C   0  0  0  0  0  0  0  0  0  0  0  0
   23.1530    3.1840   31.7378 C   0  0  0  0  0  0  0  0  0  0  0  0
   24.5282    1.8156   33.2068 O   0  0  0  0  0  0  0  0  0  0  0  0
   23.6287    0.7111   33.1397 C   0  0  0  0  0  0  0  0  0  0  0  0
   24.9529   10.7212   29.6747 H   0  0  0  0  0  0  0  0  0  0  0  0
   24.6453   11.6807   31.1617 H   0  0  0  0  0  0  0  0  0  0  0  0
   24.2404    9.9311   31.1218 H   0  0  0  0  0  0  0  0  0  0  0  0
   22.9087   12.1220   29.4334 H   0  0  0  0  0  0  0  0  0  0  0  0
   22.5038   10.3724   29.3935 H   0  0  0  0  0  0  0  0  0  0  0  0
   22.4623    8.9225   30.6499 H   0  0  0  0  0  0  0  0  0  0  0  0
   19.3284    7.2442   32.8613 H   0  0  0  0  0  0  0  0  0  0  0  0
   18.0251   10.3287   34.0704 H   0  0  0  0  0  0  0  0  0  0  0  0
   17.8960    8.6023   34.0182 H   0  0  0  0  0  0  0  0  0  0  0  0
   21.0651    3.6354   30.2472 H   0  0  0  0  0  0  0  0  0  0  0  0
   21.8008    4.9201   29.2299 H   0  0  0  0  0  0  0  0  0  0  0  0
   24.6089    7.9035   28.8608 H   0  0  0  0  0  0  0  0  0  0  0  0
   25.2301    7.5678   30.5125 H   0  0  0  0  0  0  0  0  0  0  0  0
   25.8310    6.6119   29.1154 H   0  0  0  0  0  0  0  0  0  0  0  0
   26.2213    5.3507   30.8936 H   0  0  0  0  0  0  0  0  0  0  0  0
   22.2923    2.5690   31.9553 H   0  0  0  0  0  0  0  0  0  0  0  0
   23.8955   -0.0271   33.9104 H   0  0  0  0  0  0  0  0  0  0  0  0
   22.6011    1.0644   33.3106 H   0  0  0  0  0  0  0  0  0  0  0  0
   23.6953    0.2440   32.1460 H   0  0  0  0  0  0  0  0  0  0  0  0
  1  2  1  0  0  0  0
  2  3  1  0  0  0  0
  3  4  1  0  0  0  0
  4 10  2  0  0  0  0
  4  5  1  0  0  0  0
  5  6  1  0  0  0  0
  6  7  2  0  0  0  0
  6 13  1  0  0  0  0
  7  8  1  0  0  0  0
  8  9  2  0  0  0  0
  8 10  1  0  0  0  0
 10 11  1  0  0  0  0
 11 12  3  0  0  0  0
 13 14  2  0  0  0  0
 14 15  1  0  0  0  0
 14 16  1  0  0  0  0
 16 17  1  0  0  0  0
 17 27  2  0  0  0  0
 17 18  1  0  0  0  0
 18 19  1  0  0  0  0
 18 21  2  0  0  0  0
 19 20  1  0  0  0  0
 21 22  1  0  0  0  0
 22 23  1  0  0  0  0
 22 26  2  0  0  0  0
 23 24  2  0  0  0  0
 23 25  1  0  0  0  0
 26 27  1  0  0  0  0
 26 28  1  0  0  0  0
 28 29  1  0  0  0  0
  1 30  1  0  0  0  0
  1 31  1  0  0  0  0
  1 32  1  0  0  0  0
  2 33  1  0  0  0  0
  2 34  1  0  0  0  0
  5 35  1  0  0  0  0
  7 36  1  0  0  0  0
  9 37  1  0  0  0  0
  9 38  1  0  0  0  0
 16 39  1  0  0  0  0
 16 40  1  0  0  0  0
 20 41  1  0  0  0  0
 20 42  1  0  0  0  0
 20 43  1  0  0  0  0
 21 44  1  0  0  0  0
 27 45  1  0  0  0  0
 29 46  1  0  0  0  0
 29 47  1  0  0  0  0
 29 48  1  0  0  0  0
M  CHG  4   9   1  15  -1  23   1  25  -1
M  END
> <i_m_stars>
0

> <r_user_dG.exp>
-9.740725

$$$$
18639-1
  -OEChem-05162309453D
 Structure written by MMmdl.
 48 49  0     0  0  0  0  0  0999 V2000
   24.2764   10.8583   30.5311 C   0  0  0  0  0  0  0  0  0  0  0  0
   22.8724   11.1948   30.0242 C   0  0  0  0  0  0  0  0  0  0  0  0
   21.9935   11.3729   31.1346 O   0  0  0  0  0  0  0  0  0  0  0  0
   21.3005   10.2943   31.6577 C   0  0  0  0  0  0  0  0  0  0  0  0
   21.6713    9.0502   31.2482 N   0  0  0  0  0  0  0  0  0  0  0  0
   20.9501    8.0000   31.6666 C   0  0  0  0  0  0  0  0  0  0  0  0
   19.8665    8.1184   32.5257 C   0  0  0  0  0  0  0  0  0  0  0  0
   19.4926    9.3843   32.9417 C   0  0  0  0  0  0  0  0  0  0  0  0
   18.3660    9.4440   33.7525 N   0  0  0  0  0  0  0  0  0  0  0  0
   20.2180   10.5087   32.5170 C   0  0  0  0  0  0  0  0  0  0  0  0
   19.8684   11.8729   32.8958 C   0  0  0  0  0  0  0  0  0  0  0  0
   19.5992   12.9596   33.1898 N   0  0  0  0  0  0  0  0  0  0  0  0
   21.4272    6.8285   31.1136 N   0  3  0  0  0  0  0  0  0  0  0  0
   20.8583    5.6230   31.0220 C   0  0  0  0  0  0  0  0  0  0  0  0
   19.7390    5.3452   31.4465 O   0  5  0  0  0  0  0  0  0  0  0  0
   21.6500    4.5669   30.2607 C   0  0  0  0  0  0  0  0  0  0  0  0
   23.0147    4.2719   30.8751 C   0  0  0  0  0  0  0  0  0  0  0  0
   24.1184    5.0810   30.5810 C   0  0  0  0  0  0  0  0  0  0  0  0
   23.9097    6.1670   29.7482 O   0  0  0  0  0  0  0  0  0  0  0  0
   24.9546    7.1169   29.5477 C   0  0  0  0  0  0  0  0  0  0  0  0
   25.3567    4.7546   31.1456 C   0  0  0  0  0  0  0  0  0  0  0  0
   25.5076    3.6737   32.0309 C   0  0  0  0  0  0  0  0  0  0  0  0
   26.8469    3.4094   32.6231 N   0  3  0  0  0  0  0  0  0  0  0  0
   26.9382    2.7388   33.6465 O   0  0  0  0  0  0  0  0  0  0  0  0
   27.8303    3.9025   32.0768 O   0  5  0  0  0  0  0  0  0  0  0  0
   24.3855    2.8726   32.3281 C   0  0  0  0  0  0  0  0  0  0  0  0
   23.1530    3.1840   31.7378 C   0  0  0  0  0  0  0  0  0  0  0  0
   24.5282    1.8156   33.2068 O   0  0  0  0  0  0  0  0  0  0  0  0
   23.6287    0.7111   33.1397 C   0  0  0  0  0  0  0  0  0  0  0  0
   24.9529   10.7212   29.6747 H   0  0  0  0  0  0  0  0  0  0  0  0
   24.6453   11.6807   31.1617 H   0  0  0  0  0  0  0  0  0  0  0  0
   24.2404    9.9311   31.1218 H   0  0  0  0  0  0  0  0  0  0  0  0
   22.9087   12.1220   29.4334 H   0  0  0  0  0  0  0  0  0  0  0  0
   22.5038   10.3724   29.3935 H   0  0  0  0  0  0  0  0  0  0  0  0
   22.4623    8.9225   30.6499 H   0  0  0  0  0  0  0  0  0  0  0  0
   19.3284    7.2442   32.8613 H   0  0  0  0  0  0  0  0  0  0  0  0
   18.1313   10.3843   33.9991 H   0  0  0  0  0  0  0  0  0  0  0  0
   22.3439    6.8922   30.7190 H   0  0  0  0  0  0  0  0  0  0  0  0
   21.0651    3.6354   30.2472 H   0  0  0  0  0  0  0  0  0  0  0  0
   21.8008    4.9201   29.2299 H   0  0  0  0  0  0  0  0  0  0  0  0
   24.6089    7.9035   28.8608 H   0  0  0  0  0  0  0  0  0  0  0  0
   25.2301    7.5678   30.5125 H   0  0  0  0  0  0  0  0  0  0  0  0
   25.8310    6.6119   29.1154 H   0  0  0  0  0  0  0  0  0  0  0  0
   26.2213    5.3507   30.8936 H   0  0  0  0  0  0  0  0  0  0  0  0
   22.2923    2.5690   31.9553 H   0  0  0  0  0  0  0  0  0  0  0  0
   23.8955   -0.0271   33.9104 H   0  0  0  0  0  0  0  0  0  0  0  0
   22.6011    1.0644   33.3106 H   0  0  0  0  0  0  0  0  0  0  0  0
   23.6953    0.2440   32.1460 H   0  0  0  0  0  0  0  0  0  0  0  0
  1  2  1  0  0  0  0
  2  3  1  0  0  0  0
  3  4  1  0  0  0  0
  4 10  2  0  0  0  0
  4  5  1  0  0  0  0
  5  6  1  0  0  0  0
  6  7  2  0  0  0  0
  6 13  1  0  0  0  0
  7  8  1  0  0  0  0
  8  9  2  0  0  0  0
  8 10  1  0  0  0  0
 10 11  1  0  0  0  0
 11 12  3  0  0  0  0
 13 14  2  0  0  0  0
 14 15  1  0  0  0  0
 14 16  1  0  0  0  0
 16 17  1  0  0  0  0
 17 27  2  0  0  0  0
 17 18  1  0  0  0  0
 18 19  1  0  0  0  0
 18 21  2  0  0  0  0
 19 20  1  0  0  0  0
 21 22  1  0  0  0  0
 22 23  1  0  0  0  0
 22 26  2  0  0  0  0
 23 24  2  0  0  0  0
 23 25  1  0  0  0  0
 26 27  1  0  0  0  0
 26 28  1  0  0  0  0
 28 29  1  0  0  0  0
  1 30  1  0  0  0  0
  1 31  1  0  0  0  0
  1 32  1  0  0  0  0
  2 33  1  0  0  0  0
  2 34  1  0  0  0  0
  5 35  1  0  0  0  0
  7 36  1  0  0  0  0
  9 37  1  0  0  0  0
 13 38  1  0  0  0  0
 16 39  1  0  0  0  0
 16 40  1  0  0  0  0
 20 41  1  0  0  0  0
 20 42  1  0  0  0  0
 20 43  1  0  0  0  0
 21 44  1  0  0  0  0
 27 45  1  0  0  0  0
 29 46  1  0  0  0  0
 29 47  1  0  0  0  0
 29 48  1  0  0  0  0
M  CHG  4  13   1  15  -1  23   1  25  -1
M  END
> <i_m_stars>
0

> <r_user_dG.exp>
-9.740725

$$$$
18639-1
  -OEChem-05162309453D
 Structure written by MMmdl.
 48 49  0     0  0  0  0  0  0999 V2000
   24.2764   10.8583   30.5311 C   0  0  0  0  0  0  0  0  0  0  0  0
   22.8724   11.1948   30.0242 C   0  0  0  0  0  0  0  0  0  0  0  0
   21.9935   11.3729   31.1346 O   0  0  0  0  0  0  0  0  0  0  0  0
   21.3005   10.2943   31.6577 C   0  0  0  0  0  0  0  0  0  0  0  0
   21.6713    9.0502   31.2482 N   0  0  0  0  0  0  0  0  0  0  0  0
   20.9501    8.0000   31.6666 C   0  0  0  0  0  0  0  0  0  0  0  0
   19.8665    8.1184   32.5257 C   0  0  0  0  0  0  0  0  0  0  0  0
   19.4926    9.3843   32.9417 C   0  0  0  0  0  0  0  0  0  0  0  0
   18.3660    9.4440   33.7525 N   0  3  0  0  0  0  0  0  0  0  0  0
   20.2180   10.5087   32.5170 C   0  0  0  0  0  0  0  0  0  0  0  0
   19.8684   11.8729   32.8958 C   0  0  0  0  0  0  0  0  0  0  0  0
   19.5992   12.9596   33.1898 N   0  5  0  0  0  0  0  0  0  0  0  0
   21.4272    6.8285   31.1136 N   0  0  0  0  0  0  0  0  0  0  0  0
   20.8583    5.6230   31.0220 C   0  0  0  0  0  0  0  0  0  0  0  0
   19.7390    5.3452   31.4465 O   0  0  0  0  0  0  0  0  0  0  0  0
   21.6500    4.5669   30.2607 C   0  0  0  0  0  0  0  0  0  0  0  0
   23.0147    4.2719   30.8751 C   0  0  0  0  0  0  0  0  0  0  0  0
   24.1184    5.0810   30.5810 C   0  0  0  0  0  0  0  0  0  0  0  0
   23.9097    6.1670   29.7482 O   0  0  0  0  0  0  0  0  0  0  0  0
   24.9546    7.1169   29.5477 C   0  0  0  0  0  0  0  0  0  0  0  0
   25.3567    4.7546   31.1456 C   0  0  0  0  0  0  0  0  0  0  0  0
   25.5076    3.6737   32.0309 C   0  0  0  0  0  0  0  0  0  0  0  0
   26.8469    3.4094   32.6231 N   0  3  0  0  0  0  0  0  0  0  0  0
   26.9382    2.7388   33.6465 O   0  0  0  0  0  0  0  0  0  0  0  0
   27.8303    3.9025   32.0768 O   0  5  0  0  0  0  0  0  0  0  0  0
   24.3855    2.8726   32.3281 C   0  0  0  0  0  0  0  0  0  0  0  0
   23.1530    3.1840   31.7378 C   0  0  0  0  0  0  0  0  0  0  0  0
   24.5282    1.8156   33.2068 O   0  0  0  0  0  0  0  0  0  0  0  0
   23.6287    0.7111   33.1397 C   0  0  0  0  0  0  0  0  0  0  0  0
   24.9529   10.7212   29.6747 H   0  0  0  0  0  0  0  0  0  0  0  0
   24.6453   11.6807   31.1617 H   0  0  0  0  0  0  0  0  0  0  0  0
   24.2404    9.9311   31.1218 H   0  0  0  0  0  0  0  0  0  0  0  0
   22.9087   12.1220   29.4334 H   0  0  0  0  0  0  0  0  0  0  0  0
   22.5038   10.3724   29.3935 H   0  0  0  0  0  0  0  0  0  0  0  0
   18.9983    7.6732   32.0177 H   0  0  0  0  0  0  0  0  0  0  0  0
   20.1018    7.5355   33.4284 H   0  0  0  0  0  0  0  0  0  0  0  0
   18.0251   10.3287   34.0704 H   0  0  0  0  0  0  0  0  0  0  0  0
   17.8960    8.6023   34.0182 H   0  0  0  0  0  0  0  0  0  0  0  0
   21.0651    3.6354   30.2472 H   0  0  0  0  0  0  0  0  0  0  0  0
   21.8008    4.9201   29.2299 H   0  0  0  0  0  0  0  0  0  0  0  0
   24.6089    7.9035   28.8608 H   0  0  0  0  0  0  0  0  0  0  0  0
   25.2301    7.5678   30.5125 H   0  0  0  0  0  0  0  0  0  0  0  0
   25.8310    6.6119   29.1154 H   0  0  0  0  0  0  0  0  0  0  0  0
   26.2213    5.3507   30.8936 H   0  0  0  0  0  0  0  0  0  0  0  0
   22.2923    2.5690   31.9553 H   0  0  0  0  0  0  0  0  0  0  0  0
   23.8955   -0.0271   33.9104 H   0  0  0  0  0  0  0  0  0  0  0  0
   22.6011    1.0644   33.3106 H   0  0  0  0  0  0  0  0  0  0  0  0
   23.6953    0.2440   32.1460 H   0  0  0  0  0  0  0  0  0  0  0  0
  1  2  1  0  0  0  0
  2  3  1  0  0  0  0
  3  4  1  0  0  0  0
  4 10  1  0  0  0  0
  4  5  2  0  0  0  0
  5  6  1  0  0  0  0
  6  7  1  0  0  0  0
  6 13  2  0  0  0  0
  7  8  1  0  0  0  0
  8  9  2  0  0  0  0
  8 10  1  0  0  0  0
 10 11  2  0  0  0  0
 11 12  2  0  0  0  0
 13 14  1  0  0  0  0
 14 15  2  0  0  0  0
 14 16  1  0  0  0  0
 16 17  1  0  0  0  0
 17 27  2  0  0  0  0
 17 18  1  0  0  0  0
 18 19  1  0  0  0  0
 18 21  2  0  0  0  0
 19 20  1  0  0  0  0
 21 22  1  0  0  0  0
 22 23  1  0  0  0  0
 22 26  2  0  0  0  0
 23 24  2  0  0  0  0
 23 25  1  0  0  0  0
 26 27  1  0  0  0  0
 26 28  1  0  0  0  0
 28 29  1  0  0  0  0
  1 30  1  0  0  0  0
  1 31  1  0  0  0  0
  1 32  1  0  0  0  0
  2 33  1  0  0  0  0
  2 34  1  0  0  0  0
  7 35  1  0  0  0  0
  7 36  1  0  0  0  0
  9 37  1  0  0  0  0
  9 38  1  0  0  0  0
 16 39  1  0  0  0  0
 16 40  1  0  0  0  0
 20 41  1  0  0  0  0
 20 42  1  0  0  0  0
 20 43  1  0  0  0  0
 21 44  1  0  0  0  0
 27 45  1  0  0  0  0
 29 46  1  0  0  0  0
 29 47  1  0  0  0  0
 29 48  1  0  0  0  0
M  CHG  4   9   1  12  -1  23   1  25  -1
M  END
> <i_m_stars>
0

> <r_user_dG.exp>
-9.740725

$$$$
18639-1
  -OEChem-05162309453D
 Structure written by MMmdl.
 48 49  0     0  0  0  0  0  0999 V2000
   24.2764   10.8583   30.5311 C   0  0  0  0  0  0  0  0  0  0  0  0
   22.8724   11.1948   30.0242 C   0  0  0  0  0  0  0  0  0  0  0  0
   21.9935   11.3729   31.1346 O   0  0  0  0  0  0  0  0  0  0  0  0
   21.3005   10.2943   31.6577 C   0  0  0  0  0  0  0  0  0  0  0  0
   21.6713    9.0502   31.2482 N   0  3  0  0  0  0  0  0  0  0  0  0
   20.9501    8.0000   31.6666 C   0  0  0  0  0  0  0  0  0  0  0  0
   19.8665    8.1184   32.5257 C   0  0  0  0  0  0  0  0  0  0  0  0
   19.4926    9.3843   32.9417 C   0  0  0  0  0  0  0  0  0  0  0  0
   18.3660    9.4440   33.7525 N   0  0  0  0  0  0  0  0  0  0  0  0
   20.2180   10.5087   32.5170 C   0  0  0  0  0  0  0  0  0  0  0  0
   19.8684   11.8729   32.8958 C   0  0  0  0  0  0  0  0  0  0  0  0
   19.5992   12.9596   33.1898 N   0  5  0  0  0  0  0  0  0  0  0  0
   21.4272    6.8285   31.1136 N   0  0  0  0  0  0  0  0  0  0  0  0
   20.8583    5.6230   31.0220 C   0  0  0  0  0  0  0  0  0  0  0  0
   19.7390    5.3452   31.4465 O   0  0  0  0  0  0  0  0  0  0  0  0
   21.6500    4.5669   30.2607 C   0  0  0  0  0  0  0  0  0  0  0  0
   23.0147    4.2719   30.8751 C   0  0  0  0  0  0  0  0  0  0  0  0
   24.1184    5.0810   30.5810 C   0  0  0  0  0  0  0  0  0  0  0  0
   23.9097    6.1670   29.7482 O   0  0  0  0  0  0  0  0  0  0  0  0
   24.9546    7.1169   29.5477 C   0  0  0  0  0  0  0  0  0  0  0  0
   25.3567    4.7546   31.1456 C   0  0  0  0  0  0  0  0  0  0  0  0
   25.5076    3.6737   32.0309 C   0  0  0  0  0  0  0  0  0  0  0  0
   26.8469    3.4094   32.6231 N   0  3  0  0  0  0  0  0  0  0  0  0
   26.9382    2.7388   33.6465 O   0  0  0  0  0  0  0  0  0  0  0  0
   27.8303    3.9025   32.0768 O   0  5  0  0  0  0  0  0  0  0  0  0
   24.3855    2.8726   32.3281 C   0  0  0  0  0  0  0  0  0  0  0  0
   23.1530    3.1840   31.7378 C   0  0  0  0  0  0  0  0  0  0  0  0
   24.5282    1.8156   33.2068 O   0  0  0  0  0  0  0  0  0  0  0  0
   23.6287    0.7111   33.1397 C   0  0  0  0  0  0  0  0  0  0  0  0
   24.9529   10.7212   29.6747 H   0  0  0  0  0  0  0  0  0  0  0  0
   24.6453   11.6807   31.1617 H   0  0  0  0  0  0  0  0  0  0  0  0
   24.2404    9.9311   31.1218 H   0  0  0  0  0  0  0  0  0  0  0  0
   22.9087   12.1220   29.4334 H   0  0  0  0  0  0  0  0  0  0  0  0
   22.5038   10.3724   29.3935 H   0  0  0  0  0  0  0  0  0  0  0  0
   22.4623    8.9225   30.6499 H   0  0  0  0  0  0  0  0  0  0  0  0
   18.9983    7.6732   32.0177 H   0  0  0  0  0  0  0  0  0  0  0  0
   20.1018    7.5355   33.4284 H   0  0  0  0  0  0  0  0  0  0  0  0
   18.1313   10.3843   33.9991 H   0  0  0  0  0  0  0  0  0  0  0  0
   21.0651    3.6354   30.2472 H   0  0  0  0  0  0  0  0  0  0  0  0
   21.8008    4.9201   29.2299 H   0  0  0  0  0  0  0  0  0  0  0  0
   24.6089    7.9035   28.8608 H   0  0  0  0  0  0  0  0  0  0  0  0
   25.2301    7.5678   30.5125 H   0  0  0  0  0  0  0  0  0  0  0  0
   25.8310    6.6119   29.1154 H   0  0  0  0  0  0  0  0  0  0  0  0
   26.2213    5.3507   30.8936 H   0  0  0  0  0  0  0  0  0  0  0  0
   22.2923    2.5690   31.9553 H   0  0  0  0  0  0  0  0  0  0  0  0
   23.8955   -0.0271   33.9104 H   0  0  0  0  0  0  0  0  0  0  0  0
   22.6011    1.0644   33.3106 H   0  0  0  0  0  0  0  0  0  0  0  0
   23.6953    0.2440   32.1460 H   0  0  0  0  0  0  0  0  0  0  0  0
  1  2  1  0  0  0  0
  2  3  1  0  0  0  0
  3  4  1  0  0  0  0
  4 10  1  0  0  0  0
  4  5  2  0  0  0  0
  5  6  1  0  0  0  0
  6  7  1  0  0  0  0
  6 13  2  0  0  0  0
  7  8  1  0  0  0  0
  8  9  2  0  0  0  0
  8 10  1  0  0  0  0
 10 11  2  0  0  0  0
 11 12  2  0  0  0  0
 13 14  1  0  0  0  0
 14 15  2  0  0  0  0
 14 16  1  0  0  0  0
 16 17  1  0  0  0  0
 17 27  2  0  0  0  0
 17 18  1  0  0  0  0
 18 19  1  0  0  0  0
 18 21  2  0  0  0  0
 19 20  1  0  0  0  0
 21 22  1  0  0  0  0
 22 23  1  0  0  0  0
 22 26  2  0  0  0  0
 23 24  2  0  0  0  0
 23 25  1  0  0  0  0
 26 27  1  0  0  0  0
 26 28  1  0  0  0  0
 28 29  1  0  0  0  0
  1 30  1  0  0  0  0
  1 31  1  0  0  0  0
  1 32  1  0  0  0  0
  2 33  1  0  0  0  0
  2 34  1  0  0  0  0
  5 35  1  0  0  0  0
  7 36  1  0  0  0  0
  7 37  1  0  0  0  0
  9 38  1  0  0  0  0
 16 39  1  0  0  0  0
 16 40  1  0  0  0  0
 20 41  1  0  0  0  0
 20 42  1  0  0  0  0
 20 43  1  0  0  0  0
 21 44  1  0  0  0  0
 27 45  1  0  0  0  0
 29 46  1  0  0  0  0
 29 47  1  0  0  0  0
 29 48  1  0  0  0  0
M  CHG  4   5   1  12  -1  23   1  25  -1
M  END
> <i_m_stars>
0

> <r_user_dG.exp>
-9.740725

$$$$
18639-1
  -OEChem-05162309453D
 Structure written by MMmdl.
 48 49  0     0  0  0  0  0  0999 V2000
   24.2764   10.8583   30.5311 C   0  0  0  0  0  0  0  0  0  0  0  0
   22.8724   11.1948   30.0242 C   0  0  0  0  0  0  0  0  0  0  0  0
   21.9935   11.3729   31.1346 O   0  0  0  0  0  0  0  0  0  0  0  0
   21.3005   10.2943   31.6577 C   0  0  0  0  0  0  0  0  0  0  0  0
   21.6713    9.0502   31.2482 N   0  0  0  0  0  0  0  0  0  0  0  0
   20.9501    8.0000   31.6666 C   0  0  0  0  0  0  0  0  0  0  0  0
   19.8665    8.1184   32.5257 C   0  0  0  0  0  0  0  0  0  0  0  0
   19.4926    9.3843   32.9417 C   0  0  0  0  0  0  0  0  0  0  0  0
   18.3660    9.4440   33.7525 N   0  0  0  0  0  0  0  0  0  0  0  0
   20.2180   10.5087   32.5170 C   0  0  0  0  0  0  0  0  0  0  0  0
   19.8684   11.8729   32.8958 C   0  0  0  0  0  0  0  0  0  0  0  0
   19.5992   12.9596   33.1898 N   0  5  0  0  0  0  0  0  0  0  0  0
   21.4272    6.8285   31.1136 N   0  3  0  0  0  0  0  0  0  0  0  0
   20.8583    5.6230   31.0220 C   0  0  0  0  0  0  0  0  0  0  0  0
   19.7390    5.3452   31.4465 O   0  0  0  0  0  0  0  0  0  0  0  0
   21.6500    4.5669   30.2607 C   0  0  0  0  0  0  0  0  0  0  0  0
   23.0147    4.2719   30.8751 C   0  0  0  0  0  0  0  0  0  0  0  0
   24.1184    5.0810   30.5810 C   0  0  0  0  0  0  0  0  0  0  0  0
   23.9097    6.1670   29.7482 O   0  0  0  0  0  0  0  0  0  0  0  0
   24.9546    7.1169   29.5477 C   0  0  0  0  0  0  0  0  0  0  0  0
   25.3567    4.7546   31.1456 C   0  0  0  0  0  0  0  0  0  0  0  0
   25.5076    3.6737   32.0309 C   0  0  0  0  0  0  0  0  0  0  0  0
   26.8469    3.4094   32.6231 N   0  3  0  0  0  0  0  0  0  0  0  0
   26.9382    2.7388   33.6465 O   0  0  0  0  0  0  0  0  0  0  0  0
   27.8303    3.9025   32.0768 O   0  5  0  0  0  0  0  0  0  0  0  0
   24.3855    2.8726   32.3281 C   0  0  0  0  0  0  0  0  0  0  0  0
   23.1530    3.1840   31.7378 C   0  0  0  0  0  0  0  0  0  0  0  0
   24.5282    1.8156   33.2068 O   0  0  0  0  0  0  0  0  0  0  0  0
   23.6287    0.7111   33.1397 C   0  0  0  0  0  0  0  0  0  0  0  0
   24.9529   10.7212   29.6747 H   0  0  0  0  0  0  0  0  0  0  0  0
   24.6453   11.6807   31.1617 H   0  0  0  0  0  0  0  0  0  0  0  0
   24.2404    9.9311   31.1218 H   0  0  0  0  0  0  0  0  0  0  0  0
   22.9087   12.1220   29.4334 H   0  0  0  0  0  0  0  0  0  0  0  0
   22.5038   10.3724   29.3935 H   0  0  0  0  0  0  0  0  0  0  0  0
   18.9983    7.6732   32.0177 H   0  0  0  0  0  0  0  0  0  0  0  0
   20.1018    7.5355   33.4284 H   0  0  0  0  0  0  0  0  0  0  0  0
   18.1313   10.3843   33.9991 H   0  0  0  0  0  0  0  0  0  0  0  0
   22.3439    6.8922   30.7190 H   0  0  0  0  0  0  0  0  0  0  0  0
   21.0651    3.6354   30.2472 H   0  0  0  0  0  0  0  0  0  0  0  0
   21.8008    4.9201   29.2299 H   0  0  0  0  0  0  0  0  0  0  0  0
   24.6089    7.9035   28.8608 H   0  0  0  0  0  0  0  0  0  0  0  0
   25.2301    7.5678   30.5125 H   0  0  0  0  0  0  0  0  0  0  0  0
   25.8310    6.6119   29.1154 H   0  0  0  0  0  0  0  0  0  0  0  0
   26.2213    5.3507   30.8936 H   0  0  0  0  0  0  0  0  0  0  0  0
   22.2923    2.5690   31.9553 H   0  0  0  0  0  0  0  0  0  0  0  0
   23.8955   -0.0271   33.9104 H   0  0  0  0  0  0  0  0  0  0  0  0
   22.6011    1.0644   33.3106 H   0  0  0  0  0  0  0  0  0  0  0  0
   23.6953    0.2440   32.1460 H   0  0  0  0  0  0  0  0  0  0  0  0
  1  2  1  0  0  0  0
  2  3  1  0  0  0  0
  3  4  1  0  0  0  0
  4 10  1  0  0  0  0
  4  5  2  0  0  0  0
  5  6  1  0  0  0  0
  6  7  1  0  0  0  0
  6 13  2  0  0  0  0
  7  8  1  0  0  0  0
  8  9  2  0  0  0  0
  8 10  1  0  0  0  0
 10 11  2  0  0  0  0
 11 12  2  0  0  0  0
 13 14  1  0  0  0  0
 14 15  2  0  0  0  0
 14 16  1  0  0  0  0
 16 17  1  0  0  0  0
 17 27  2  0  0  0  0
 17 18  1  0  0  0  0
 18 19  1  0  0  0  0
 18 21  2  0  0  0  0
 19 20  1  0  0  0  0
 21 22  1  0  0  0  0
 22 23  1  0  0  0  0
 22 26  2  0  0  0  0
 23 24  2  0  0  0  0
 23 25  1  0  0  0  0
 26 27  1  0  0  0  0
 26 28  1  0  0  0  0
 28 29  1  0  0  0  0
  1 30  1  0  0  0  0
  1 31  1  0  0  0  0
  1 32  1  0  0  0  0
  2 33  1  0  0  0  0
  2 34  1  0  0  0  0
  7 35  1  0  0  0  0
  7 36  1  0  0  0  0
  9 37  1  0  0  0  0
 13 38  1  0  0  0  0
 16 39  1  0  0  0  0
 16 40  1  0  0  0  0
 20 41  1  0  0  0  0
 20 42  1  0  0  0  0
 20 43  1  0  0  0  0
 21 44  1  0  0  0  0
 27 45  1  0  0  0  0
 29 46  1  0  0  0  0
 29 47  1  0  0  0  0
 29 48  1  0  0  0  0
M  CHG  4  12  -1  13   1  23   1  25  -1
M  END
> <i_m_stars>
0

> <r_user_dG.exp>
-9.740725

$$$$
18639-1
  -OEChem-05162309453D
 Structure written by MMmdl.
 48 49  0     0  0  0  0  0  0999 V2000
   24.2764   10.8583   30.5311 C   0  0  0  0  0  0  0  0  0  0  0  0
   22.8724   11.1948   30.0242 C   0  0  0  0  0  0  0  0  0  0  0  0
   21.9935   11.3729   31.1346 O   0  0  0  0  0  0  0  0  0  0  0  0
   21.3005   10.2943   31.6577 C   0  0  0  0  0  0  0  0  0  0  0  0
   21.6713    9.0502   31.2482 N   0  0  0  0  0  0  0  0  0  0  0  0
   20.9501    8.0000   31.6666 C   0  0  0  0  0  0  0  0  0  0  0  0
   19.8665    8.1184   32.5257 C   0  0  0  0  0  0  0  0  0  0  0  0
   19.4926    9.3843   32.9417 C   0  0  0  0  0  0  0  0  0  0  0  0
   18.3660    9.4440   33.7525 N   0  3  0  0  0  0  0  0  0  0  0  0
   20.2180   10.5087   32.5170 C   0  0  0  0  0  0  0  0  0  0  0  0
   19.8684   11.8729   32.8958 C   0  0  0  0  0  0  0  0  0  0  0  0
   19.5992   12.9596   33.1898 N   0  5  0  0  0  0  0  0  0  0  0  0
   21.4272    6.8285   31.1136 N   0  0  0  0  0  0  0  0  0  0  0  0
   20.8583    5.6230   31.0220 C   0  0  0  0  0  0  0  0  0  0  0  0
   19.7390    5.3452   31.4465 O   0  0  0  0  0  0  0  0  0  0  0  0
   21.6500    4.5669   30.2607 C   0  0  0  0  0  0  0  0  0  0  0  0
   23.0147    4.2719   30.8751 C   0  0  0  0  0  0  0  0  0  0  0  0
   24.1184    5.0810   30.5810 C   0  0  0  0  0  0  0  0  0  0  0  0
   23.9097    6.1670   29.7482 O   0  0  0  0  0  0  0  0  0  0  0  0
   24.9546    7.1169   29.5477 C   0  0  0  0  0  0  0  0  0  0  0  0
   25.3567    4.7546   31.1456 C   0  0  0  0  0  0  0  0  0  0  0  0
   25.5076    3.6737   32.0309 C   0  0  0  0  0  0  0  0  0  0  0  0
   26.8469    3.4094   32.6231 N   0  3  0  0  0  0  0  0  0  0  0  0
   26.9382    2.7388   33.6465 O   0  0  0  0  0  0  0  0  0  0  0  0
   27.8303    3.9025   32.0768 O   0  5  0  0  0  0  0  0  0  0  0  0
   24.3855    2.8726   32.3281 C   0  0  0  0  0  0  0  0  0  0  0  0
   23.1530    3.1840   31.7378 C   0  0  0  0  0  0  0  0  0  0  0  0
   24.5282    1.8156   33.2068 O   0  0  0  0  0  0  0  0  0  0  0  0
   23.6287    0.7111   33.1397 C   0  0  0  0  0  0  0  0  0  0  0  0
   24.9529   10.7212   29.6747 H   0  0  0  0  0  0  0  0  0  0  0  0
   24.6453   11.6807   31.1617 H   0  0  0  0  0  0  0  0  0  0  0  0
   24.2404    9.9311   31.1218 H   0  0  0  0  0  0  0  0  0  0  0  0
   22.9087   12.1220   29.4334 H   0  0  0  0  0  0  0  0  0  0  0  0
   22.5038   10.3724   29.3935 H   0  0  0  0  0  0  0  0  0  0  0  0
   19.3284    7.2442   32.8613 H   0  0  0  0  0  0  0  0  0  0  0  0
   18.0251   10.3287   34.0704 H   0  0  0  0  0  0  0  0  0  0  0  0
   17.8960    8.6023   34.0182 H   0  0  0  0  0  0  0  0  0  0  0  0
   22.3439    6.8922   30.7190 H   0  0  0  0  0  0  0  0  0  0  0  0
   21.0651    3.6354   30.2472 H   0  0  0  0  0  0  0  0  0  0  0  0
   21.8008    4.9201   29.2299 H   0  0  0  0  0  0  0  0  0  0  0  0
   24.6089    7.9035   28.8608 H   0  0  0  0  0  0  0  0  0  0  0  0
   25.2301    7.5678   30.5125 H   0  0  0  0  0  0  0  0  0  0  0  0
   25.8310    6.6119   29.1154 H   0  0  0  0  0  0  0  0  0  0  0  0
   26.2213    5.3507   30.8936 H   0  0  0  0  0  0  0  0  0  0  0  0
   22.2923    2.5690   31.9553 H   0  0  0  0  0  0  0  0  0  0  0  0
   23.8955   -0.0271   33.9104 H   0  0  0  0  0  0  0  0  0  0  0  0
   22.6011    1.0644   33.3106 H   0  0  0  0  0  0  0  0  0  0  0  0
   23.6953    0.2440   32.1460 H   0  0  0  0  0  0  0  0  0  0  0  0
  1  2  1  0  0  0  0
  2  3  1  0  0  0  0
  3  4  1  0  0  0  0
  4 10  1  0  0  0  0
  4  5  2  0  0  0  0
  5  6  1  0  0  0  0
  6  7  2  0  0  0  0
  6 13  1  0  0  0  0
  7  8  1  0  0  0  0
  8  9  2  0  0  0  0
  8 10  1  0  0  0  0
 10 11  2  0  0  0  0
 11 12  2  0  0  0  0
 13 14  1  0  0  0  0
 14 15  2  0  0  0  0
 14 16  1  0  0  0  0
 16 17  1  0  0  0  0
 17 27  2  0  0  0  0
 17 18  1  0  0  0  0
 18 19  1  0  0  0  0
 18 21  2  0  0  0  0
 19 20  1  0  0  0  0
 21 22  1  0  0  0  0
 22 23  1  0  0  0  0
 22 26  2  0  0  0  0
 23 24  2  0  0  0  0
 23 25  1  0  0  0  0
 26 27  1  0  0  0  0
 26 28  1  0  0  0  0
 28 29  1  0  0  0  0
  1 30  1  0  0  0  0
  1 31  1  0  0  0  0
  1 32  1  0  0  0  0
  2 33  1  0  0  0  0
  2 34  1  0  0  0  0
  7 35  1  0  0  0  0
  9 36  1  0  0  0  0
  9 37  1  0  0  0  0
 13 38  1  0  0  0  0
 16 39  1  0  0  0  0
 16 40  1  0  0  0  0
 20 41  1  0  0  0  0
 20 42  1  0  0  0  0
 20 43  1  0  0  0  0
 21 44  1  0  0  0  0
 27 45  1  0  0  0  0
 29 46  1  0  0  0  0
 29 47  1  0  0  0  0
 29 48  1  0  0  0  0
M  CHG  4   9   1  12  -1  23   1  25  -1
M  END
> <i_m_stars>
0

> <r_user_dG.exp>
-9.740725

$$$$
18639-1
  -OEChem-05162309453D
 Structure written by MMmdl.
 48 49  0     0  0  0  0  0  0999 V2000
   24.2764   10.8583   30.5311 C   0  0  0  0  0  0  0  0  0  0  0  0
   22.8724   11.1948   30.0242 C   0  0  0  0  0  0  0  0  0  0  0  0
   21.9935   11.3729   31.1346 O   0  0  0  0  0  0  0  0  0  0  0  0
   21.3005   10.2943   31.6577 C   0  0  0  0  0  0  0  0  0  0  0  0
   21.6713    9.0502   31.2482 N   0  3  0  0  0  0  0  0  0  0  0  0
   20.9501    8.0000   31.6666 C   0  0  0  0  0  0  0  0  0  0  0  0
   19.8665    8.1184   32.5257 C   0  0  0  0  0  0  0  0  0  0  0  0
   19.4926    9.3843   32.9417 C   0  0  0  0  0  0  0  0  0  0  0  0
   18.3660    9.4440   33.7525 N   0  0  0  0  0  0  0  0  0  0  0  0
   20.2180   10.5087   32.5170 C   0  0  0  0  0  0  0  0  0  0  0  0
   19.8684   11.8729   32.8958 C   0  0  0  0  0  0  0  0  0  0  0  0
   19.5992   12.9596   33.1898 N   0  5  0  0  0  0  0  0  0  0  0  0
   21.4272    6.8285   31.1136 N   0  0  0  0  0  0  0  0  0  0  0  0
   20.8583    5.6230   31.0220 C   0  0  0  0  0  0  0  0  0  0  0  0
   19.7390    5.3452   31.4465 O   0  0  0  0  0  0  0  0  0  0  0  0
   21.6500    4.5669   30.2607 C   0  0  0  0  0  0  0  0  0  0  0  0
   23.0147    4.2719   30.8751 C   0  0  0  0  0  0  0  0  0  0  0  0
   24.1184    5.0810   30.5810 C   0  0  0  0  0  0  0  0  0  0  0  0
   23.9097    6.1670   29.7482 O   0  0  0  0  0  0  0  0  0  0  0  0
   24.9546    7.1169   29.5477 C   0  0  0  0  0  0  0  0  0  0  0  0
   25.3567    4.7546   31.1456 C   0  0  0  0  0  0  0  0  0  0  0  0
   25.5076    3.6737   32.0309 C   0  0  0  0  0  0  0  0  0  0  0  0
   26.8469    3.4094   32.6231 N   0  3  0  0  0  0  0  0  0  0  0  0
   26.9382    2.7388   33.6465 O   0  0  0  0  0  0  0  0  0  0  0  0
   27.8303    3.9025   32.0768 O   0  5  0  0  0  0  0  0  0  0  0  0
   24.3855    2.8726   32.3281 C   0  0  0  0  0  0  0  0  0  0  0  0
   23.1530    3.1840   31.7378 C   0  0  0  0  0  0  0  0  0  0  0  0
   24.5282    1.8156   33.2068 O   0  0  0  0  0  0  0  0  0  0  0  0
   23.6287    0.7111   33.1397 C   0  0  0  0  0  0  0  0  0  0  0  0
   24.9529   10.7212   29.6747 H   0  0  0  0  0  0  0  0  0  0  0  0
   24.6453   11.6807   31.1617 H   0  0  0  0  0  0  0  0  0  0  0  0
   24.2404    9.9311   31.1218 H   0  0  0  0  0  0  0  0  0  0  0  0
   22.9087   12.1220   29.4334 H   0  0  0  0  0  0  0  0  0  0  0  0
   22.5038   10.3724   29.3935 H   0  0  0  0  0  0  0  0  0  0  0  0
   22.4623    8.9225   30.6499 H   0  0  0  0  0  0  0  0  0  0  0  0
   19.3284    7.2442   32.8613 H   0  0  0  0  0  0  0  0  0  0  0  0
   18.1313   10.3843   33.9991 H   0  0  0  0  0  0  0  0  0  0  0  0
   22.3439    6.8922   30.7190 H   0  0  0  0  0  0  0  0  0  0  0  0
   21.0651    3.6354   30.2472 H   0  0  0  0  0  0  0  0  0  0  0  0
   21.8008    4.9201   29.2299 H   0  0  0  0  0  0  0  0  0  0  0  0
   24.6089    7.9035   28.8608 H   0  0  0  0  0  0  0  0  0  0  0  0
   25.2301    7.5678   30.5125 H   0  0  0  0  0  0  0  0  0  0  0  0
   25.8310    6.6119   29.1154 H   0  0  0  0  0  0  0  0  0  0  0  0
   26.2213    5.3507   30.8936 H   0  0  0  0  0  0  0  0  0  0  0  0
   22.2923    2.5690   31.9553 H   0  0  0  0  0  0  0  0  0  0  0  0
   23.8955   -0.0271   33.9104 H   0  0  0  0  0  0  0  0  0  0  0  0
   22.6011    1.0644   33.3106 H   0  0  0  0  0  0  0  0  0  0  0  0
   23.6953    0.2440   32.1460 H   0  0  0  0  0  0  0  0  0  0  0  0
  1  2  1  0  0  0  0
  2  3  1  0  0  0  0
  3  4  1  0  0  0  0
  4 10  1  0  0  0  0
  4  5  2  0  0  0  0
  5  6  1  0  0  0  0
  6  7  2  0  0  0  0
  6 13  1  0  0  0  0
  7  8  1  0  0  0  0
  8  9  2  0  0  0  0
  8 10  1  0  0  0  0
 10 11  2  0  0  0  0
 11 12  2  0  0  0  0
 13 14  1  0  0  0  0
 14 15  2  0  0  0  0
 14 16  1  0  0  0  0
 16 17  1  0  0  0  0
 17 27  2  0  0  0  0
 17 18  1  0  0  0  0
 18 19  1  0  0  0  0
 18 21  2  0  0  0  0
 19 20  1  0  0  0  0
 21 22  1  0  0  0  0
 22 23  1  0  0  0  0
 22 26  2  0  0  0  0
 23 24  2  0  0  0  0
 23 25  1  0  0  0  0
 26 27  1  0  0  0  0
 26 28  1  0  0  0  0
 28 29  1  0  0  0  0
  1 30  1  0  0  0  0
  1 31  1  0  0  0  0
  1 32  1  0  0  0  0
  2 33  1  0  0  0  0
  2 34  1  0  0  0  0
  5 35  1  0  0  0  0
  7 36  1  0  0  0  0
  9 37  1  0  0  0  0
 13 38  1  0  0  0  0
 16 39  1  0  0  0  0
 16 40  1  0  0  0  0
 20 41  1  0  0  0  0
 20 42  1  0  0  0  0
 20 43  1  0  0  0  0
 21 44  1  0  0  0  0
 27 45  1  0  0  0  0
 29 46  1  0  0  0  0
 29 47  1  0  0  0  0
 29 48  1  0  0  0  0
M  CHG  4   5   1  12  -1  23   1  25  -1
M  END
> <i_m_stars>
0

> <r_user_dG.exp>
-9.740725

$$$$
18639-1
  -OEChem-05162309453D
 Structure written by MMmdl.
 48 49  0     0  0  0  0  0  0999 V2000
   24.2764   10.8583   30.5311 C   0  0  0  0  0  0  0  0  0  0  0  0
   22.8724   11.1948   30.0242 C   0  0  0  0  0  0  0  0  0  0  0  0
   21.9935   11.3729   31.1346 O   0  0  0  0  0  0  0  0  0  0  0  0
   21.3005   10.2943   31.6577 C   0  0  0  0  0  0  0  0  0  0  0  0
   21.6713    9.0502   31.2482 N   0  3  0  0  0  0  0  0  0  0  0  0
   20.9501    8.0000   31.6666 C   0  0  0  0  0  0  0  0  0  0  0  0
   19.8665    8.1184   32.5257 C   0  0  0  0  0  0  0  0  0  0  0  0
   19.4926    9.3843   32.9417 C   0  0  0  0  0  0  0  0  0  0  0  0
   18.3660    9.4440   33.7525 N   0  0  0  0  0  0  0  0  0  0  0  0
   20.2180   10.5087   32.5170 C   0  0  0  0  0  0  0  0  0  0  0  0
   19.8684   11.8729   32.8958 C   0  0  0  0  0  0  0  0  0  0  0  0
   19.5992   12.9596   33.1898 N   0  5  0  0  0  0  0  0  0  0  0  0
   21.4272    6.8285   31.1136 N   0  0  0  0  0  0  0  0  0  0  0  0
   20.8583    5.6230   31.0220 C   0  0  0  0  0  0  0  0  0  0  0  0
   19.7390    5.3452   31.4465 O   0  0  0  0  0  0  0  0  0  0  0  0
   21.6500    4.5669   30.2607 C   0  0  0  0  0  0  0  0  0  0  0  0
   23.0147    4.2719   30.8751 C   0  0  0  0  0  0  0  0  0  0  0  0
   24.1184    5.0810   30.5810 C   0  0  0  0  0  0  0  0  0  0  0  0
   23.9097    6.1670   29.7482 O   0  0  0  0  0  0  0  0  0  0  0  0
   24.9546    7.1169   29.5477 C   0  0  0  0  0  0  0  0  0  0  0  0
   25.3567    4.7546   31.1456 C   0  0  0  0  0  0  0  0  0  0  0  0
   25.5076    3.6737   32.0309 C   0  0  0  0  0  0  0  0  0  0  0  0
   26.8469    3.4094   32.6231 N   0  3  0  0  0  0  0  0  0  0  0  0
   26.9382    2.7388   33.6465 O   0  0  0  0  0  0  0  0  0  0  0  0
   27.8303    3.9025   32.0768 O   0  5  0  0  0  0  0  0  0  0  0  0
   24.3855    2.8726   32.3281 C   0  0  0  0  0  0  0  0  0  0  0  0
   23.1530    3.1840   31.7378 C   0  0  0  0  0  0  0  0  0  0  0  0
   24.5282    1.8156   33.2068 O   0  0  0  0  0  0  0  0  0  0  0  0
   23.6287    0.7111   33.1397 C   0  0  0  0  0  0  0  0  0  0  0  0
   24.9529   10.7212   29.6747 H   0  0  0  0  0  0  0  0  0  0  0  0
   24.6453   11.6807   31.1617 H   0  0  0  0  0  0  0  0  0  0  0  0
   24.2404    9.9311   31.1218 H   0  0  0  0  0  0  0  0  0  0  0  0
   22.9087   12.1220   29.4334 H   0  0  0  0  0  0  0  0  0  0  0  0
   22.5038   10.3724   29.3935 H   0  0  0  0  0  0  0  0  0  0  0  0
   22.4623    8.9225   30.6499 H   0  0  0  0  0  0  0  0  0  0  0  0
   19.3284    7.2442   32.8613 H   0  0  0  0  0  0  0  0  0  0  0  0
   18.1807   10.3958   33.9969 H   0  0  0  0  0  0  0  0  0  0  0  0
   17.5811    9.0674   33.2605 H   0  0  0  0  0  0  0  0  0  0  0  0
   21.0651    3.6354   30.2472 H   0  0  0  0  0  0  0  0  0  0  0  0
   21.8008    4.9201   29.2299 H   0  0  0  0  0  0  0  0  0  0  0  0
   24.6089    7.9035   28.8608 H   0  0  0  0  0  0  0  0  0  0  0  0
   25.2301    7.5678   30.5125 H   0  0  0  0  0  0  0  0  0  0  0  0
   25.8310    6.6119   29.1154 H   0  0  0  0  0  0  0  0  0  0  0  0
   26.2213    5.3507   30.8936 H   0  0  0  0  0  0  0  0  0  0  0  0
   22.2923    2.5690   31.9553 H   0  0  0  0  0  0  0  0  0  0  0  0
   23.8955   -0.0271   33.9104 H   0  0  0  0  0  0  0  0  0  0  0  0
   22.6011    1.0644   33.3106 H   0  0  0  0  0  0  0  0  0  0  0  0
   23.6953    0.2440   32.1460 H   0  0  0  0  0  0  0  0  0  0  0  0
  1  2  1  0  0  0  0
  2  3  1  0  0  0  0
  3  4  1  0  0  0  0
  4 10  1  0  0  0  0
  4  5  2  0  0  0  0
  5  6  1  0  0  0  0
  6  7  1  0  0  0  0
  6 13  2  0  0  0  0
  7  8  2  0  0  0  0
  8  9  1  0  0  0  0
  8 10  1  0  0  0  0
 10 11  2  0  0  0  0
 11 12  2  0  0  0  0
 13 14  1  0  0  0  0
 14 15  2  0  0  0  0
 14 16  1  0  0  0  0
 16 17  1  0  0  0  0
 17 27  2  0  0  0  0
 17 18  1  0  0  0  0
 18 19  1  0  0  0  0
 18 21  2  0  0  0  0
 19 20  1  0  0  0  0
 21 22  1  0  0  0  0
 22 23  1  0  0  0  0
 22 26  2  0  0  0  0
 23 24  2  0  0  0  0
 23 25  1  0  0  0  0
 26 27  1  0  0  0  0
 26 28  1  0  0  0  0
 28 29  1  0  0  0  0
  1 30  1  0  0  0  0
  1 31  1  0  0  0  0
  1 32  1  0  0  0  0
  2 33  1  0  0  0  0
  2 34  1  0  0  0  0
  5 35  1  0  0  0  0
  7 36  1  0  0  0  0
  9 37  1  0  0  0  0
  9 38  1  0  0  0  0
 16 39  1  0  0  0  0
 16 40  1  0  0  0  0
 20 41  1  0  0  0  0
 20 42  1  0  0  0  0
 20 43  1  0  0  0  0
 21 44  1  0  0  0  0
 27 45  1  0  0  0  0
 29 46  1  0  0  0  0
 29 47  1  0  0  0  0
 29 48  1  0  0  0  0
M  CHG  4   5   1  12  -1  23   1  25  -1
M  END
> <i_m_stars>
0

> <r_user_dG.exp>
-9.740725

$$$$
18639-1
  -OEChem-05162309453D
 Structure written by MMmdl.
 48 49  0     0  0  0  0  0  0999 V2000
   24.2764   10.8583   30.5311 C   0  0  0  0  0  0  0  0  0  0  0  0
   22.8724   11.1948   30.0242 C   0  0  0  0  0  0  0  0  0  0  0  0
   21.9935   11.3729   31.1346 O   0  0  0  0  0  0  0  0  0  0  0  0
   21.3005   10.2943   31.6577 C   0  0  0  0  0  0  0  0  0  0  0  0
   21.6713    9.0502   31.2482 N   0  0  0  0  0  0  0  0  0  0  0  0
   20.9501    8.0000   31.6666 C   0  0  0  0  0  0  0  0  0  0  0  0
   19.8665    8.1184   32.5257 C   0  0  0  0  0  0  0  0  0  0  0  0
   19.4926    9.3843   32.9417 C   0  0  0  0  0  0  0  0  0  0  0  0
   18.3660    9.4440   33.7525 N   0  0  0  0  0  0  0  0  0  0  0  0
   20.2180   10.5087   32.5170 C   0  0  0  0  0  0  0  0  0  0  0  0
   19.8684   11.8729   32.8958 C   0  0  0  0  0  0  0  0  0  0  0  0
   19.5992   12.9596   33.1898 N   0  5  0  0  0  0  0  0  0  0  0  0
   21.4272    6.8285   31.1136 N   0  3  0  0  0  0  0  0  0  0  0  0
   20.8583    5.6230   31.0220 C   0  0  0  0  0  0  0  0  0  0  0  0
   19.7390    5.3452   31.4465 O   0  0  0  0  0  0  0  0  0  0  0  0
   21.6500    4.5669   30.2607 C   0  0  0  0  0  0  0  0  0  0  0  0
   23.0147    4.2719   30.8751 C   0  0  0  0  0  0  0  0  0  0  0  0
   24.1184    5.0810   30.5810 C   0  0  0  0  0  0  0  0  0  0  0  0
   23.9097    6.1670   29.7482 O   0  0  0  0  0  0  0  0  0  0  0  0
   24.9546    7.1169   29.5477 C   0  0  0  0  0  0  0  0  0  0  0  0
   25.3567    4.7546   31.1456 C   0  0  0  0  0  0  0  0  0  0  0  0
   25.5076    3.6737   32.0309 C   0  0  0  0  0  0  0  0  0  0  0  0
   26.8469    3.4094   32.6231 N   0  3  0  0  0  0  0  0  0  0  0  0
   26.9382    2.7388   33.6465 O   0  0  0  0  0  0  0  0  0  0  0  0
   27.8303    3.9025   32.0768 O   0  5  0  0  0  0  0  0  0  0  0  0
   24.3855    2.8726   32.3281 C   0  0  0  0  0  0  0  0  0  0  0  0
   23.1530    3.1840   31.7378 C   0  0  0  0  0  0  0  0  0  0  0  0
   24.5282    1.8156   33.2068 O   0  0  0  0  0  0  0  0  0  0  0  0
   23.6287    0.7111   33.1397 C   0  0  0  0  0  0  0  0  0  0  0  0
   24.9529   10.7212   29.6747 H   0  0  0  0  0  0  0  0  0  0  0  0
   24.6453   11.6807   31.1617 H   0  0  0  0  0  0  0  0  0  0  0  0
   24.2404    9.9311   31.1218 H   0  0  0  0  0  0  0  0  0  0  0  0
   22.9087   12.1220   29.4334 H   0  0  0  0  0  0  0  0  0  0  0  0
   22.5038   10.3724   29.3935 H   0  0  0  0  0  0  0  0  0  0  0  0
   19.3284    7.2442   32.8613 H   0  0  0  0  0  0  0  0  0  0  0  0
   18.1807   10.3958   33.9969 H   0  0  0  0  0  0  0  0  0  0  0  0
   17.5811    9.0674   33.2605 H   0  0  0  0  0  0  0  0  0  0  0  0
   22.3439    6.8922   30.7190 H   0  0  0  0  0  0  0  0  0  0  0  0
   21.0651    3.6354   30.2472 H   0  0  0  0  0  0  0  0  0  0  0  0
   21.8008    4.9201   29.2299 H   0  0  0  0  0  0  0  0  0  0  0  0
   24.6089    7.9035   28.8608 H   0  0  0  0  0  0  0  0  0  0  0  0
   25.2301    7.5678   30.5125 H   0  0  0  0  0  0  0  0  0  0  0  0
   25.8310    6.6119   29.1154 H   0  0  0  0  0  0  0  0  0  0  0  0
   26.2213    5.3507   30.8936 H   0  0  0  0  0  0  0  0  0  0  0  0
   22.2923    2.5690   31.9553 H   0  0  0  0  0  0  0  0  0  0  0  0
   23.8955   -0.0271   33.9104 H   0  0  0  0  0  0  0  0  0  0  0  0
   22.6011    1.0644   33.3106 H   0  0  0  0  0  0  0  0  0  0  0  0
   23.6953    0.2440   32.1460 H   0  0  0  0  0  0  0  0  0  0  0  0
  1  2  1  0  0  0  0
  2  3  1  0  0  0  0
  3  4  1  0  0  0  0
  4 10  1  0  0  0  0
  4  5  2  0  0  0  0
  5  6  1  0  0  0  0
  6  7  1  0  0  0  0
  6 13  2  0  0  0  0
  7  8  2  0  0  0  0
  8  9  1  0  0  0  0
  8 10  1  0  0  0  0
 10 11  2  0  0  0  0
 11 12  2  0  0  0  0
 13 14  1  0  0  0  0
 14 15  2  0  0  0  0
 14 16  1  0  0  0  0
 16 17  1  0  0  0  0
 17 27  2  0  0  0  0
 17 18  1  0  0  0  0
 18 19  1  0  0  0  0
 18 21  2  0  0  0  0
 19 20  1  0  0  0  0
 21 22  1  0  0  0  0
 22 23  1  0  0  0  0
 22 26  2  0  0  0  0
 23 24  2  0  0  0  0
 23 25  1  0  0  0  0
 26 27  1  0  0  0  0
 26 28  1  0  0  0  0
 28 29  1  0  0  0  0
  1 30  1  0  0  0  0
  1 31  1  0  0  0  0
  1 32  1  0  0  0  0
  2 33  1  0  0  0  0
  2 34  1  0  0  0  0
  7 35  1  0  0  0  0
  9 36  1  0  0  0  0
  9 37  1  0  0  0  0
 13 38  1  0  0  0  0
 16 39  1  0  0  0  0
 16 40  1  0  0  0  0
 20 41  1  0  0  0  0
 20 42  1  0  0  0  0
 20 43  1  0  0  0  0
 21 44  1  0  0  0  0
 27 45  1  0  0  0  0
 29 46  1  0  0  0  0
 29 47  1  0  0  0  0
 29 48  1  0  0  0  0
M  CHG  4  12  -1  13   1  23   1  25  -1
M  END
> <i_m_stars>
0

> <r_user_dG.exp>
-9.740725

$$$$
18639-1
  -OEChem-05162309453D
 Structure written by MMmdl.
 48 49  0     0  0  0  0  0  0999 V2000
   24.2764   10.8583   30.5311 C   0  0  0  0  0  0  0  0  0  0  0  0
   22.8724   11.1948   30.0242 C   0  0  0  0  0  0  0  0  0  0  0  0
   21.9935   11.3729   31.1346 O   0  0  0  0  0  0  0  0  0  0  0  0
   21.3005   10.2943   31.6577 C   0  0  0  0  0  0  0  0  0  0  0  0
   21.6713    9.0502   31.2482 N   0  0  0  0  0  0  0  0  0  0  0  0
   20.9501    8.0000   31.6666 C   0  0  0  0  0  0  0  0  0  0  0  0
   19.8665    8.1184   32.5257 C   0  0  0  0  0  0  0  0  0  0  0  0
   19.4926    9.3843   32.9417 C   0  0  0  0  0  0  0  0  0  0  0  0
   18.3660    9.4440   33.7525 N   0  3  0  0  0  0  0  0  0  0  0  0
   20.2180   10.5087   32.5170 C   0  0  0  0  0  0  0  0  0  0  0  0
   19.8684   11.8729   32.8958 C   0  0  0  0  0  0  0  0  0  0  0  0
   19.5992   12.9596   33.1898 N   0  5  0  0  0  0  0  0  0  0  0  0
   21.4272    6.8285   31.1136 N   0  0  0  0  0  0  0  0  0  0  0  0
   20.8583    5.6230   31.0220 C   0  0  0  0  0  0  0  0  0  0  0  0
   19.7390    5.3452   31.4465 O   0  0  0  0  0  0  0  0  0  0  0  0
   21.6500    4.5669   30.2607 C   0  0  0  0  0  0  0  0  0  0  0  0
   23.0147    4.2719   30.8751 C   0  0  0  0  0  0  0  0  0  0  0  0
   24.1184    5.0810   30.5810 C   0  0  0  0  0  0  0  0  0  0  0  0
   23.9097    6.1670   29.7482 O   0  0  0  0  0  0  0  0  0  0  0  0
   24.9546    7.1169   29.5477 C   0  0  0  0  0  0  0  0  0  0  0  0
   25.3567    4.7546   31.1456 C   0  0  0  0  0  0  0  0  0  0  0  0
   25.5076    3.6737   32.0309 C   0  0  0  0  0  0  0  0  0  0  0  0
   26.8469    3.4094   32.6231 N   0  3  0  0  0  0  0  0  0  0  0  0
   26.9382    2.7388   33.6465 O   0  0  0  0  0  0  0  0  0  0  0  0
   27.8303    3.9025   32.0768 O   0  5  0  0  0  0  0  0  0  0  0  0
   24.3855    2.8726   32.3281 C   0  0  0  0  0  0  0  0  0  0  0  0
   23.1530    3.1840   31.7378 C   0  0  0  0  0  0  0  0  0  0  0  0
   24.5282    1.8156   33.2068 O   0  0  0  0  0  0  0  0  0  0  0  0
   23.6287    0.7111   33.1397 C   0  0  0  0  0  0  0  0  0  0  0  0
   24.9529   10.7212   29.6747 H   0  0  0  0  0  0  0  0  0  0  0  0
   24.6453   11.6807   31.1617 H   0  0  0  0  0  0  0  0  0  0  0  0
   24.2404    9.9311   31.1218 H   0  0  0  0  0  0  0  0  0  0  0  0
   22.9087   12.1220   29.4334 H   0  0  0  0  0  0  0  0  0  0  0  0
   22.5038   10.3724   29.3935 H   0  0  0  0  0  0  0  0  0  0  0  0
   19.3284    7.2442   32.8613 H   0  0  0  0  0  0  0  0  0  0  0  0
   18.1807   10.3958   33.9969 H   0  0  0  0  0  0  0  0  0  0  0  0
   17.5811    9.0674   33.2605 H   0  0  0  0  0  0  0  0  0  0  0  0
   18.5251    8.9114   34.5838 H   0  0  0  0  0  0  0  0  0  0  0  0
   21.0651    3.6354   30.2472 H   0  0  0  0  0  0  0  0  0  0  0  0
   21.8008    4.9201   29.2299 H   0  0  0  0  0  0  0  0  0  0  0  0
   24.6089    7.9035   28.8608 H   0  0  0  0  0  0  0  0  0  0  0  0
   25.2301    7.5678   30.5125 H   0  0  0  0  0  0  0  0  0  0  0  0
   25.8310    6.6119   29.1154 H   0  0  0  0  0  0  0  0  0  0  0  0
   26.2213    5.3507   30.8936 H   0  0  0  0  0  0  0  0  0  0  0  0
   22.2923    2.5690   31.9553 H   0  0  0  0  0  0  0  0  0  0  0  0
   23.8955   -0.0271   33.9104 H   0  0  0  0  0  0  0  0  0  0  0  0
   22.6011    1.0644   33.3106 H   0  0  0  0  0  0  0  0  0  0  0  0
   23.6953    0.2440   32.1460 H   0  0  0  0  0  0  0  0  0  0  0  0
  1  2  1  0  0  0  0
  2  3  1  0  0  0  0
  3  4  1  0  0  0  0
  4 10  1  0  0  0  0
  4  5  2  0  0  0  0
  5  6  1  0  0  0  0
  6  7  1  0  0  0  0
  6 13  2  0  0  0  0
  7  8  2  0  0  0  0
  8  9  1  0  0  0  0
  8 10  1  0  0  0  0
 10 11  2  0  0  0  0
 11 12  2  0  0  0  0
 13 14  1  0  0  0  0
 14 15  2  0  0  0  0
 14 16  1  0  0  0  0
 16 17  1  0  0  0  0
 17 27  2  0  0  0  0
 17 18  1  0  0  0  0
 18 19  1  0  0  0  0
 18 21  2  0  0  0  0
 19 20  1  0  0  0  0
 21 22  1  0  0  0  0
 22 23  1  0  0  0  0
 22 26  2  0  0  0  0
 23 24  2  0  0  0  0
 23 25  1  0  0  0  0
 26 27  1  0  0  0  0
 26 28  1  0  0  0  0
 28 29  1  0  0  0  0
  1 30  1  0  0  0  0
  1 31  1  0  0  0  0
  1 32  1  0  0  0  0
  2 33  1  0  0  0  0
  2 34  1  0  0  0  0
  7 35  1  0  0  0  0
  9 36  1  0  0  0  0
  9 37  1  0  0  0  0
  9 38  1  0  0  0  0
 16 39  1  0  0  0  0
 16 40  1  0  0  0  0
 20 41  1  0  0  0  0
 20 42  1  0  0  0  0
 20 43  1  0  0  0  0
 21 44  1  0  0  0  0
 27 45  1  0  0  0  0
 29 46  1  0  0  0  0
 29 47  1  0  0  0  0
 29 48  1  0  0  0  0
M  CHG  4   9   1  12  -1  23   1  25  -1
M  END
> <i_m_stars>
0

> <r_user_dG.exp>
-9.740725

$$$$
18639-1
  -OEChem-05162309453D
 Structure written by MMmdl.
 48 49  0     0  0  0  0  0  0999 V2000
   24.2764   10.8583   30.5311 C   0  0  0  0  0  0  0  0  0  0  0  0
   22.8724   11.1948   30.0242 C   0  0  0  0  0  0  0  0  0  0  0  0
   21.9935   11.3729   31.1346 O   0  0  0  0  0  0  0  0  0  0  0  0
   21.3005   10.2943   31.6577 C   0  0  0  0  0  0  0  0  0  0  0  0
   21.6713    9.0502   31.2482 N   0  0  0  0  0  0  0  0  0  0  0  0
   20.9501    8.0000   31.6666 C   0  0  0  0  0  0  0  0  0  0  0  0
   19.8665    8.1184   32.5257 C   0  0  0  0  0  0  0  0  0  0  0  0
   19.4926    9.3843   32.9417 C   0  0  0  0  0  0  0  0  0  0  0  0
   18.3660    9.4440   33.7525 N   0  3  0  0  0  0  0  0  0  0  0  0
   20.2180   10.5087   32.5170 C   0  0  0  0  0  0  0  0  0  0  0  0
   19.8684   11.8729   32.8958 C   0  0  0  0  0  0  0  0  0  0  0  0
   19.5992   12.9596   33.1898 N   0  5  0  0  0  0  0  0  0  0  0  0
   21.4272    6.8285   31.1136 N   0  0  0  0  0  0  0  0  0  0  0  0
   20.8583    5.6230   31.0220 C   0  0  0  0  0  0  0  0  0  0  0  0
   19.7390    5.3452   31.4465 O   0  0  0  0  0  0  0  0  0  0  0  0
   21.6500    4.5669   30.2607 C   0  0  0  0  0  0  0  0  0  0  0  0
   23.0147    4.2719   30.8751 C   0  0  0  0  0  0  0  0  0  0  0  0
   24.1184    5.0810   30.5810 C   0  0  0  0  0  0  0  0  0  0  0  0
   23.9097    6.1670   29.7482 O   0  0  0  0  0  0  0  0  0  0  0  0
   24.9546    7.1169   29.5477 C   0  0  0  0  0  0  0  0  0  0  0  0
   25.3567    4.7546   31.1456 C   0  0  0  0  0  0  0  0  0  0  0  0
   25.5076    3.6737   32.0309 C   0  0  0  0  0  0  0  0  0  0  0  0
   26.8469    3.4094   32.6231 N   0  3  0  0  0  0  0  0  0  0  0  0
   26.9382    2.7388   33.6465 O   0  0  0  0  0  0  0  0  0  0  0  0
   27.8303    3.9025   32.0768 O   0  5  0  0  0  0  0  0  0  0  0  0
   24.3855    2.8726   32.3281 C   0  0  0  0  0  0  0  0  0  0  0  0
   23.1530    3.1840   31.7378 C   0  0  0  0  0  0  0  0  0  0  0  0
   24.5282    1.8156   33.2068 O   0  0  0  0  0  0  0  0  0  0  0  0
   23.6287    0.7111   33.1397 C   0  0  0  0  0  0  0  0  0  0  0  0
   24.9529   10.7212   29.6747 H   0  0  0  0  0  0  0  0  0  0  0  0
   24.6453   11.6807   31.1617 H   0  0  0  0  0  0  0  0  0  0  0  0
   24.2404    9.9311   31.1218 H   0  0  0  0  0  0  0  0  0  0  0  0
   22.9087   12.1220   29.4334 H   0  0  0  0  0  0  0  0  0  0  0  0
   22.5038   10.3724   29.3935 H   0  0  0  0  0  0  0  0  0  0  0  0
   19.3284    7.2442   32.8613 H   0  0  0  0  0  0  0  0  0  0  0  0
   18.0251   10.3287   34.0704 H   0  0  0  0  0  0  0  0  0  0  0  0
   17.8960    8.6023   34.0182 H   0  0  0  0  0  0  0  0  0  0  0  0
   19.5499    4.4315   31.2679 H   0  0  0  0  0  0  0  0  0  0  0  0
   21.0651    3.6354   30.2472 H   0  0  0  0  0  0  0  0  0  0  0  0
   21.8008    4.9201   29.2299 H   0  0  0  0  0  0  0  0  0  0  0  0
   24.6089    7.9035   28.8608 H   0  0  0  0  0  0  0  0  0  0  0  0
   25.2301    7.5678   30.5125 H   0  0  0  0  0  0  0  0  0  0  0  0
   25.8310    6.6119   29.1154 H   0  0  0  0  0  0  0  0  0  0  0  0
   26.2213    5.3507   30.8936 H   0  0  0  0  0  0  0  0  0  0  0  0
   22.2923    2.5690   31.9553 H   0  0  0  0  0  0  0  0  0  0  0  0
   23.8955   -0.0271   33.9104 H   0  0  0  0  0  0  0  0  0  0  0  0
   22.6011    1.0644   33.3106 H   0  0  0  0  0  0  0  0  0  0  0  0
   23.6953    0.2440   32.1460 H   0  0  0  0  0  0  0  0  0  0  0  0
  1  2  1  0  0  0  0
  2  3  1  0  0  0  0
  3  4  1  0  0  0  0
  4 10  1  0  0  0  0
  4  5  2  0  0  0  0
  5  6  1  0  0  0  0
  6  7  2  0  0  0  0
  6 13  1  0  0  0  0
  7  8  1  0  0  0  0
  8  9  2  0  0  0  0
  8 10  1  0  0  0  0
 10 11  2  0  0  0  0
 11 12  2  0  0  0  0
 13 14  2  0  0  0  0
 14 15  1  0  0  0  0
 14 16  1  0  0  0  0
 16 17  1  0  0  0  0
 17 27  2  0  0  0  0
 17 18  1  0  0  0  0
 18 19  1  0  0  0  0
 18 21  2  0  0  0  0
 19 20  1  0  0  0  0
 21 22  1  0  0  0  0
 22 23  1  0  0  0  0
 22 26  2  0  0  0  0
 23 24  2  0  0  0  0
 23 25  1  0  0  0  0
 26 27  1  0  0  0  0
 26 28  1  0  0  0  0
 28 29  1  0  0  0  0
  1 30  1  0  0  0  0
  1 31  1  0  0  0  0
  1 32  1  0  0  0  0
  2 33  1  0  0  0  0
  2 34  1  0  0  0  0
  7 35  1  0  0  0  0
  9 36  1  0  0  0  0
  9 37  1  0  0  0  0
 15 38  1  0  0  0  0
 16 39  1  0  0  0  0
 16 40  1  0  0  0  0
 20 41  1  0  0  0  0
 20 42  1  0  0  0  0
 20 43  1  0  0  0  0
 21 44  1  0  0  0  0
 27 45  1  0  0  0  0
 29 46  1  0  0  0  0
 29 47  1  0  0  0  0
 29 48  1  0  0  0  0
M  CHG  4   9   1  12  -1  23   1  25  -1
M  END
> <i_m_stars>
0

> <r_user_dG.exp>
-9.740725

$$$$
18639-1
  -OEChem-05162309453D
 Structure written by MMmdl.
 48 49  0     0  0  0  0  0  0999 V2000
   24.2764   10.8583   30.5311 C   0  0  0  0  0  0  0  0  0  0  0  0
   22.8724   11.1948   30.0242 C   0  0  0  0  0  0  0  0  0  0  0  0
   21.9935   11.3729   31.1346 O   0  0  0  0  0  0  0  0  0  0  0  0
   21.3005   10.2943   31.6577 C   0  0  0  0  0  0  0  0  0  0  0  0
   21.6713    9.0502   31.2482 N   0  3  0  0  0  0  0  0  0  0  0  0
   20.9501    8.0000   31.6666 C   0  0  0  0  0  0  0  0  0  0  0  0
   19.8665    8.1184   32.5257 C   0  0  0  0  0  0  0  0  0  0  0  0
   19.4926    9.3843   32.9417 C   0  0  0  0  0  0  0  0  0  0  0  0
   18.3660    9.4440   33.7525 N   0  0  0  0  0  0  0  0  0  0  0  0
   20.2180   10.5087   32.5170 C   0  0  0  0  0  0  0  0  0  0  0  0
   19.8684   11.8729   32.8958 C   0  0  0  0  0  0  0  0  0  0  0  0
   19.5992   12.9596   33.1898 N   0  5  0  0  0  0  0  0  0  0  0  0
   21.4272    6.8285   31.1136 N   0  0  0  0  0  0  0  0  0  0  0  0
   20.8583    5.6230   31.0220 C   0  0  0  0  0  0  0  0  0  0  0  0
   19.7390    5.3452   31.4465 O   0  0  0  0  0  0  0  0  0  0  0  0
   21.6500    4.5669   30.2607 C   0  0  0  0  0  0  0  0  0  0  0  0
   23.0147    4.2719   30.8751 C   0  0  0  0  0  0  0  0  0  0  0  0
   24.1184    5.0810   30.5810 C   0  0  0  0  0  0  0  0  0  0  0  0
   23.9097    6.1670   29.7482 O   0  0  0  0  0  0  0  0  0  0  0  0
   24.9546    7.1169   29.5477 C   0  0  0  0  0  0  0  0  0  0  0  0
   25.3567    4.7546   31.1456 C   0  0  0  0  0  0  0  0  0  0  0  0
   25.5076    3.6737   32.0309 C   0  0  0  0  0  0  0  0  0  0  0  0
   26.8469    3.4094   32.6231 N   0  3  0  0  0  0  0  0  0  0  0  0
   26.9382    2.7388   33.6465 O   0  0  0  0  0  0  0  0  0  0  0  0
   27.8303    3.9025   32.0768 O   0  5  0  0  0  0  0  0  0  0  0  0
   24.3855    2.8726   32.3281 C   0  0  0  0  0  0  0  0  0  0  0  0
   23.1530    3.1840   31.7378 C   0  0  0  0  0  0  0  0  0  0  0  0
   24.5282    1.8156   33.2068 O   0  0  0  0  0  0  0  0  0  0  0  0
   23.6287    0.7111   33.1397 C   0  0  0  0  0  0  0  0  0  0  0  0
   24.9529   10.7212   29.6747 H   0  0  0  0  0  0  0  0  0  0  0  0
   24.6453   11.6807   31.1617 H   0  0  0  0  0  0  0  0  0  0  0  0
   24.2404    9.9311   31.1218 H   0  0  0  0  0  0  0  0  0  0  0  0
   22.9087   12.1220   29.4334 H   0  0  0  0  0  0  0  0  0  0  0  0
   22.5038   10.3724   29.3935 H   0  0  0  0  0  0  0  0  0  0  0  0
   22.4623    8.9225   30.6499 H   0  0  0  0  0  0  0  0  0  0  0  0
   19.3284    7.2442   32.8613 H   0  0  0  0  0  0  0  0  0  0  0  0
   18.1313   10.3843   33.9991 H   0  0  0  0  0  0  0  0  0  0  0  0
   19.5499    4.4315   31.2679 H   0  0  0  0  0  0  0  0  0  0  0  0
   21.0651    3.6354   30.2472 H   0  0  0  0  0  0  0  0  0  0  0  0
   21.8008    4.9201   29.2299 H   0  0  0  0  0  0  0  0  0  0  0  0
   24.6089    7.9035   28.8608 H   0  0  0  0  0  0  0  0  0  0  0  0
   25.2301    7.5678   30.5125 H   0  0  0  0  0  0  0  0  0  0  0  0
   25.8310    6.6119   29.1154 H   0  0  0  0  0  0  0  0  0  0  0  0
   26.2213    5.3507   30.8936 H   0  0  0  0  0  0  0  0  0  0  0  0
   22.2923    2.5690   31.9553 H   0  0  0  0  0  0  0  0  0  0  0  0
   23.8955   -0.0271   33.9104 H   0  0  0  0  0  0  0  0  0  0  0  0
   22.6011    1.0644   33.3106 H   0  0  0  0  0  0  0  0  0  0  0  0
   23.6953    0.2440   32.1460 H   0  0  0  0  0  0  0  0  0  0  0  0
  1  2  1  0  0  0  0
  2  3  1  0  0  0  0
  3  4  1  0  0  0  0
  4 10  1  0  0  0  0
  4  5  2  0  0  0  0
  5  6  1  0  0  0  0
  6  7  2  0  0  0  0
  6 13  1  0  0  0  0
  7  8  1  0  0  0  0
  8  9  2  0  0  0  0
  8 10  1  0  0  0  0
 10 11  2  0  0  0  0
 11 12  2  0  0  0  0
 13 14  2  0  0  0  0
 14 15  1  0  0  0  0
 14 16  1  0  0  0  0
 16 17  1  0  0  0  0
 17 27  2  0  0  0  0
 17 18  1  0  0  0  0
 18 19  1  0  0  0  0
 18 21  2  0  0  0  0
 19 20  1  0  0  0  0
 21 22  1  0  0  0  0
 22 23  1  0  0  0  0
 22 26  2  0  0  0  0
 23 24  2  0  0  0  0
 23 25  1  0  0  0  0
 26 27  1  0  0  0  0
 26 28  1  0  0  0  0
 28 29  1  0  0  0  0
  1 30  1  0  0  0  0
  1 31  1  0  0  0  0
  1 32  1  0  0  0  0
  2 33  1  0  0  0  0
  2 34  1  0  0  0  0
  5 35  1  0  0  0  0
  7 36  1  0  0  0  0
  9 37  1  0  0  0  0
 15 38  1  0  0  0  0
 16 39  1  0  0  0  0
 16 40  1  0  0  0  0
 20 41  1  0  0  0  0
 20 42  1  0  0  0  0
 20 43  1  0  0  0  0
 21 44  1  0  0  0  0
 27 45  1  0  0  0  0
 29 46  1  0  0  0  0
 29 47  1  0  0  0  0
 29 48  1  0  0  0  0
M  CHG  4   5   1  12  -1  23   1  25  -1
M  END
> <i_m_stars>
0

> <r_user_dG.exp>
-9.740725

$$$$
18639-1
  -OEChem-05162309453D
 Structure written by MMmdl.
 48 49  0     0  0  0  0  0  0999 V2000
   24.2764   10.8583   30.5311 C   0  0  0  0  0  0  0  0  0  0  0  0
   22.8724   11.1948   30.0242 C   0  0  0  0  0  0  0  0  0  0  0  0
   21.9935   11.3729   31.1346 O   0  0  0  0  0  0  0  0  0  0  0  0
   21.3005   10.2943   31.6577 C   0  0  0  0  0  0  0  0  0  0  0  0
   21.6713    9.0502   31.2482 N   0  0  0  0  0  0  0  0  0  0  0  0
   20.9501    8.0000   31.6666 C   0  0  0  0  0  0  0  0  0  0  0  0
   19.8665    8.1184   32.5257 C   0  0  0  0  0  0  0  0  0  0  0  0
   19.4926    9.3843   32.9417 C   0  0  0  0  0  0  0  0  0  0  0  0
   18.3660    9.4440   33.7525 N   0  0  0  0  0  0  0  0  0  0  0  0
   20.2180   10.5087   32.5170 C   0  0  0  0  0  0  0  0  0  0  0  0
   19.8684   11.8729   32.8958 C   0  0  0  0  0  0  0  0  0  0  0  0
   19.5992   12.9596   33.1898 N   0  5  0  0  0  0  0  0  0  0  0  0
   21.4272    6.8285   31.1136 N   0  3  0  0  0  0  0  0  0  0  0  0
   20.8583    5.6230   31.0220 C   0  0  0  0  0  0  0  0  0  0  0  0
   19.7390    5.3452   31.4465 O   0  0  0  0  0  0  0  0  0  0  0  0
   21.6500    4.5669   30.2607 C   0  0  0  0  0  0  0  0  0  0  0  0
   23.0147    4.2719   30.8751 C   0  0  0  0  0  0  0  0  0  0  0  0
   24.1184    5.0810   30.5810 C   0  0  0  0  0  0  0  0  0  0  0  0
   23.9097    6.1670   29.7482 O   0  0  0  0  0  0  0  0  0  0  0  0
   24.9546    7.1169   29.5477 C   0  0  0  0  0  0  0  0  0  0  0  0
   25.3567    4.7546   31.1456 C   0  0  0  0  0  0  0  0  0  0  0  0
   25.5076    3.6737   32.0309 C   0  0  0  0  0  0  0  0  0  0  0  0
   26.8469    3.4094   32.6231 N   0  3  0  0  0  0  0  0  0  0  0  0
   26.9382    2.7388   33.6465 O   0  0  0  0  0  0  0  0  0  0  0  0
   27.8303    3.9025   32.0768 O   0  5  0  0  0  0  0  0  0  0  0  0
   24.3855    2.8726   32.3281 C   0  0  0  0  0  0  0  0  0  0  0  0
   23.1530    3.1840   31.7378 C   0  0  0  0  0  0  0  0  0  0  0  0
   24.5282    1.8156   33.2068 O   0  0  0  0  0  0  0  0  0  0  0  0
   23.6287    0.7111   33.1397 C   0  0  0  0  0  0  0  0  0  0  0  0
   24.9529   10.7212   29.6747 H   0  0  0  0  0  0  0  0  0  0  0  0
   24.6453   11.6807   31.1617 H   0  0  0  0  0  0  0  0  0  0  0  0
   24.2404    9.9311   31.1218 H   0  0  0  0  0  0  0  0  0  0  0  0
   22.9087   12.1220   29.4334 H   0  0  0  0  0  0  0  0  0  0  0  0
   22.5038   10.3724   29.3935 H   0  0  0  0  0  0  0  0  0  0  0  0
   19.3284    7.2442   32.8613 H   0  0  0  0  0  0  0  0  0  0  0  0
   18.1313   10.3843   33.9991 H   0  0  0  0  0  0  0  0  0  0  0  0
   22.3439    6.8922   30.7190 H   0  0  0  0  0  0  0  0  0  0  0  0
   19.5499    4.4315   31.2679 H   0  0  0  0  0  0  0  0  0  0  0  0
   21.0651    3.6354   30.2472 H   0  0  0  0  0  0  0  0  0  0  0  0
   21.8008    4.9201   29.2299 H   0  0  0  0  0  0  0  0  0  0  0  0
   24.6089    7.9035   28.8608 H   0  0  0  0  0  0  0  0  0  0  0  0
   25.2301    7.5678   30.5125 H   0  0  0  0  0  0  0  0  0  0  0  0
   25.8310    6.6119   29.1154 H   0  0  0  0  0  0  0  0  0  0  0  0
   26.2213    5.3507   30.8936 H   0  0  0  0  0  0  0  0  0  0  0  0
   22.2923    2.5690   31.9553 H   0  0  0  0  0  0  0  0  0  0  0  0
   23.8955   -0.0271   33.9104 H   0  0  0  0  0  0  0  0  0  0  0  0
   22.6011    1.0644   33.3106 H   0  0  0  0  0  0  0  0  0  0  0  0
   23.6953    0.2440   32.1460 H   0  0  0  0  0  0  0  0  0  0  0  0
  1  2  1  0  0  0  0
  2  3  1  0  0  0  0
  3  4  1  0  0  0  0
  4 10  1  0  0  0  0
  4  5  2  0  0  0  0
  5  6  1  0  0  0  0
  6  7  2  0  0  0  0
  6 13  1  0  0  0  0
  7  8  1  0  0  0  0
  8  9  2  0  0  0  0
  8 10  1  0  0  0  0
 10 11  2  0  0  0  0
 11 12  2  0  0  0  0
 13 14  2  0  0  0  0
 14 15  1  0  0  0  0
 14 16  1  0  0  0  0
 16 17  1  0  0  0  0
 17 27  2  0  0  0  0
 17 18  1  0  0  0  0
 18 19  1  0  0  0  0
 18 21  2  0  0  0  0
 19 20  1  0  0  0  0
 21 22  1  0  0  0  0
 22 23  1  0  0  0  0
 22 26  2  0  0  0  0
 23 24  2  0  0  0  0
 23 25  1  0  0  0  0
 26 27  1  0  0  0  0
 26 28  1  0  0  0  0
 28 29  1  0  0  0  0
  1 30  1  0  0  0  0
  1 31  1  0  0  0  0
  1 32  1  0  0  0  0
  2 33  1  0  0  0  0
  2 34  1  0  0  0  0
  7 35  1  0  0  0  0
  9 36  1  0  0  0  0
 13 37  1  0  0  0  0
 15 38  1  0  0  0  0
 16 39  1  0  0  0  0
 16 40  1  0  0  0  0
 20 41  1  0  0  0  0
 20 42  1  0  0  0  0
 20 43  1  0  0  0  0
 21 44  1  0  0  0  0
 27 45  1  0  0  0  0
 29 46  1  0  0  0  0
 29 47  1  0  0  0  0
 29 48  1  0  0  0  0
M  CHG  4  12  -1  13   1  23   1  25  -1
M  END
> <i_m_stars>
0

> <r_user_dG.exp>
-9.740725

$$$$
18639-1
  -OEChem-05162309453D
 Structure written by MMmdl.
 48 49  0     1  0  0  0  0  0999 V2000
   24.2764   10.8583   30.5311 C   0  0  0  0  0  0  0  0  0  0  0  0
   22.8724   11.1948   30.0242 C   0  0  0  0  0  0  0  0  0  0  0  0
   21.9935   11.3729   31.1346 O   0  0  0  0  0  0  0  0  0  0  0  0
   21.3005   10.2943   31.6577 C   0  0  0  0  0  0  0  0  0  0  0  0
   21.6713    9.0502   31.2482 N   0  0  0  0  0  0  0  0  0  0  0  0
   20.9501    8.0000   31.6666 C   0  0  0  0  0  0  0  0  0  0  0  0
   19.8665    8.1184   32.5257 C   0  0  0  0  0  0  0  0  0  0  0  0
   19.4926    9.3843   32.9417 C   0  0  0  0  0  0  0  0  0  0  0  0
   18.3660    9.4440   33.7525 N   0  3  0  0  0  0  0  0  0  0  0  0
   20.2180   10.5087   32.5170 C   0  0  3  0  0  0  0  0  0  0  0  0
   19.8684   11.8729   32.8958 C   0  0  0  0  0  0  0  0  0  0  0  0
   19.5992   12.9596   33.1898 N   0  0  0  0  0  0  0  0  0  0  0  0
   21.4272    6.8285   31.1136 N   0  0  0  0  0  0  0  0  0  0  0  0
   20.8583    5.6230   31.0220 C   0  0  0  0  0  0  0  0  0  0  0  0
   19.7390    5.3452   31.4465 O   0  5  0  0  0  0  0  0  0  0  0  0
   21.6500    4.5669   30.2607 C   0  0  0  0  0  0  0  0  0  0  0  0
   23.0147    4.2719   30.8751 C   0  0  0  0  0  0  0  0  0  0  0  0
   24.1184    5.0810   30.5810 C   0  0  0  0  0  0  0  0  0  0  0  0
   23.9097    6.1670   29.7482 O   0  0  0  0  0  0  0  0  0  0  0  0
   24.9546    7.1169   29.5477 C   0  0  0  0  0  0  0  0  0  0  0  0
   25.3567    4.7546   31.1456 C   0  0  0  0  0  0  0  0  0  0  0  0
   25.5076    3.6737   32.0309 C   0  0  0  0  0  0  0  0  0  0  0  0
   26.8469    3.4094   32.6231 N   0  3  0  0  0  0  0  0  0  0  0  0
   26.9382    2.7388   33.6465 O   0  0  0  0  0  0  0  0  0  0  0  0
   27.8303    3.9025   32.0768 O   0  5  0  0  0  0  0  0  0  0  0  0
   24.3855    2.8726   32.3281 C   0  0  0  0  0  0  0  0  0  0  0  0
   23.1530    3.1840   31.7378 C   0  0  0  0  0  0  0  0  0  0  0  0
   24.5282    1.8156   33.2068 O   0  0  0  0  0  0  0  0  0  0  0  0
   23.6287    0.7111   33.1397 C   0  0  0  0  0  0  0  0  0  0  0  0
   24.9529   10.7212   29.6747 H   0  0  0  0  0  0  0  0  0  0  0  0
   24.6453   11.6807   31.1617 H   0  0  0  0  0  0  0  0  0  0  0  0
   24.2404    9.9311   31.1218 H   0  0  0  0  0  0  0  0  0  0  0  0
   22.9087   12.1220   29.4334 H   0  0  0  0  0  0  0  0  0  0  0  0
   22.5038   10.3724   29.3935 H   0  0  0  0  0  0  0  0  0  0  0  0
   19.3284    7.2442   32.8613 H   0  0  0  0  0  0  0  0  0  0  0  0
   18.0251   10.3287   34.0704 H   0  0  0  0  0  0  0  0  0  0  0  0
   17.8960    8.6023   34.0182 H   0  0  0  0  0  0  0  0  0  0  0  0
   20.8809   10.4247   33.3908 H   0  0  0  0  0  0  0  0  0  0  0  0
   21.0651    3.6354   30.2472 H   0  0  0  0  0  0  0  0  0  0  0  0
   21.8008    4.9201   29.2299 H   0  0  0  0  0  0  0  0  0  0  0  0
   24.6089    7.9035   28.8608 H   0  0  0  0  0  0  0  0  0  0  0  0
   25.2301    7.5678   30.5125 H   0  0  0  0  0  0  0  0  0  0  0  0
   25.8310    6.6119   29.1154 H   0  0  0  0  0  0  0  0  0  0  0  0
   26.2213    5.3507   30.8936 H   0  0  0  0  0  0  0  0  0  0  0  0
   22.2923    2.5690   31.9553 H   0  0  0  0  0  0  0  0  0  0  0  0
   23.8955   -0.0271   33.9104 H   0  0  0  0  0  0  0  0  0  0  0  0
   22.6011    1.0644   33.3106 H   0  0  0  0  0  0  0  0  0  0  0  0
   23.6953    0.2440   32.1460 H   0  0  0  0  0  0  0  0  0  0  0  0
  1  2  1  0  0  0  0
  2  3  1  0  0  0  0
  3  4  1  0  0  0  0
  4 10  1  0  0  0  0
  4  5  2  0  0  0  0
  5  6  1  0  0  0  0
  6  7  2  0  0  0  0
  6 13  1  0  0  0  0
  7  8  1  0  0  0  0
  8  9  2  0  0  0  0
  8 10  1  0  0  0  0
 10 11  1  0  0  0  0
 11 12  3  0  0  0  0
 13 14  2  0  0  0  0
 14 15  1  0  0  0  0
 14 16  1  0  0  0  0
 16 17  1  0  0  0  0
 17 27  2  0  0  0  0
 17 18  1  0  0  0  0
 18 19  1  0  0  0  0
 18 21  2  0  0  0  0
 19 20  1  0  0  0  0
 21 22  1  0  0  0  0
 22 23  1  0  0  0  0
 22 26  2  0  0  0  0
 23 24  2  0  0  0  0
 23 25  1  0  0  0  0
 26 27  1  0  0  0  0
 26 28  1  0  0  0  0
 28 29  1  0  0  0  0
  1 30  1  0  0  0  0
  1 31  1  0  0  0  0
  1 32  1  0  0  0  0
  2 33  1  0  0  0  0
  2 34  1  0  0  0  0
  7 35  1  0  0  0  0
  9 36  1  0  0  0  0
  9 37  1  0  0  0  0
 10 38  1  0  0  0  0
 16 39  1  0  0  0  0
 16 40  1  0  0  0  0
 20 41  1  0  0  0  0
 20 42  1  0  0  0  0
 20 43  1  0  0  0  0
 21 44  1  0  0  0  0
 27 45  1  0  0  0  0
 29 46  1  0  0  0  0
 29 47  1  0  0  0  0
 29 48  1  0  0  0  0
M  CHG  4   9   1  15  -1  23   1  25  -1
M  END
> <i_m_stars>
0

> <r_user_dG.exp>
-9.740725

$$$$
18639-1
  -OEChem-05162309453D
 Structure written by MMmdl.
 48 49  0     1  0  0  0  0  0999 V2000
   24.2764   10.8583   30.5311 C   0  0  0  0  0  0  0  0  0  0  0  0
   22.8724   11.1948   30.0242 C   0  0  0  0  0  0  0  0  0  0  0  0
   21.9935   11.3729   31.1346 O   0  0  0  0  0  0  0  0  0  0  0  0
   21.3005   10.2943   31.6577 C   0  0  0  0  0  0  0  0  0  0  0  0
   21.6713    9.0502   31.2482 N   0  3  0  0  0  0  0  0  0  0  0  0
   20.9501    8.0000   31.6666 C   0  0  0  0  0  0  0  0  0  0  0  0
   19.8665    8.1184   32.5257 C   0  0  0  0  0  0  0  0  0  0  0  0
   19.4926    9.3843   32.9417 C   0  0  0  0  0  0  0  0  0  0  0  0
   18.3660    9.4440   33.7525 N   0  0  0  0  0  0  0  0  0  0  0  0
   20.2180   10.5087   32.5170 C   0  0  3  0  0  0  0  0  0  0  0  0
   19.8684   11.8729   32.8958 C   0  0  0  0  0  0  0  0  0  0  0  0
   19.5992   12.9596   33.1898 N   0  0  0  0  0  0  0  0  0  0  0  0
   21.4272    6.8285   31.1136 N   0  0  0  0  0  0  0  0  0  0  0  0
   20.8583    5.6230   31.0220 C   0  0  0  0  0  0  0  0  0  0  0  0
   19.7390    5.3452   31.4465 O   0  5  0  0  0  0  0  0  0  0  0  0
   21.6500    4.5669   30.2607 C   0  0  0  0  0  0  0  0  0  0  0  0
   23.0147    4.2719   30.8751 C   0  0  0  0  0  0  0  0  0  0  0  0
   24.1184    5.0810   30.5810 C   0  0  0  0  0  0  0  0  0  0  0  0
   23.9097    6.1670   29.7482 O   0  0  0  0  0  0  0  0  0  0  0  0
   24.9546    7.1169   29.5477 C   0  0  0  0  0  0  0  0  0  0  0  0
   25.3567    4.7546   31.1456 C   0  0  0  0  0  0  0  0  0  0  0  0
   25.5076    3.6737   32.0309 C   0  0  0  0  0  0  0  0  0  0  0  0
   26.8469    3.4094   32.6231 N   0  3  0  0  0  0  0  0  0  0  0  0
   26.9382    2.7388   33.6465 O   0  0  0  0  0  0  0  0  0  0  0  0
   27.8303    3.9025   32.0768 O   0  5  0  0  0  0  0  0  0  0  0  0
   24.3855    2.8726   32.3281 C   0  0  0  0  0  0  0  0  0  0  0  0
   23.1530    3.1840   31.7378 C   0  0  0  0  0  0  0  0  0  0  0  0
   24.5282    1.8156   33.2068 O   0  0  0  0  0  0  0  0  0  0  0  0
   23.6287    0.7111   33.1397 C   0  0  0  0  0  0  0  0  0  0  0  0
   24.9529   10.7212   29.6747 H   0  0  0  0  0  0  0  0  0  0  0  0
   24.6453   11.6807   31.1617 H   0  0  0  0  0  0  0  0  0  0  0  0
   24.2404    9.9311   31.1218 H   0  0  0  0  0  0  0  0  0  0  0  0
   22.9087   12.1220   29.4334 H   0  0  0  0  0  0  0  0  0  0  0  0
   22.5038   10.3724   29.3935 H   0  0  0  0  0  0  0  0  0  0  0  0
   22.4623    8.9225   30.6499 H   0  0  0  0  0  0  0  0  0  0  0  0
   19.3284    7.2442   32.8613 H   0  0  0  0  0  0  0  0  0  0  0  0
   18.1313   10.3843   33.9991 H   0  0  0  0  0  0  0  0  0  0  0  0
   20.8809   10.4247   33.3908 H   0  0  0  0  0  0  0  0  0  0  0  0
   21.0651    3.6354   30.2472 H   0  0  0  0  0  0  0  0  0  0  0  0
   21.8008    4.9201   29.2299 H   0  0  0  0  0  0  0  0  0  0  0  0
   24.6089    7.9035   28.8608 H   0  0  0  0  0  0  0  0  0  0  0  0
   25.2301    7.5678   30.5125 H   0  0  0  0  0  0  0  0  0  0  0  0
   25.8310    6.6119   29.1154 H   0  0  0  0  0  0  0  0  0  0  0  0
   26.2213    5.3507   30.8936 H   0  0  0  0  0  0  0  0  0  0  0  0
   22.2923    2.5690   31.9553 H   0  0  0  0  0  0  0  0  0  0  0  0
   23.8955   -0.0271   33.9104 H   0  0  0  0  0  0  0  0  0  0  0  0
   22.6011    1.0644   33.3106 H   0  0  0  0  0  0  0  0  0  0  0  0
   23.6953    0.2440   32.1460 H   0  0  0  0  0  0  0  0  0  0  0  0
  1  2  1  0  0  0  0
  2  3  1  0  0  0  0
  3  4  1  0  0  0  0
  4 10  1  0  0  0  0
  4  5  2  0  0  0  0
  5  6  1  0  0  0  0
  6  7  2  0  0  0  0
  6 13  1  0  0  0  0
  7  8  1  0  0  0  0
  8  9  2  0  0  0  0
  8 10  1  0  0  0  0
 10 11  1  0  0  0  0
 11 12  3  0  0  0  0
 13 14  2  0  0  0  0
 14 15  1  0  0  0  0
 14 16  1  0  0  0  0
 16 17  1  0  0  0  0
 17 27  2  0  0  0  0
 17 18  1  0  0  0  0
 18 19  1  0  0  0  0
 18 21  2  0  0  0  0
 19 20  1  0  0  0  0
 21 22  1  0  0  0  0
 22 23  1  0  0  0  0
 22 26  2  0  0  0  0
 23 24  2  0  0  0  0
 23 25  1  0  0  0  0
 26 27  1  0  0  0  0
 26 28  1  0  0  0  0
 28 29  1  0  0  0  0
  1 30  1  0  0  0  0
  1 31  1  0  0  0  0
  1 32  1  0  0  0  0
  2 33  1  0  0  0  0
  2 34  1  0  0  0  0
  5 35  1  0  0  0  0
  7 36  1  0  0  0  0
  9 37  1  0  0  0  0
 10 38  1  0  0  0  0
 16 39  1  0  0  0  0
 16 40  1  0  0  0  0
 20 41  1  0  0  0  0
 20 42  1  0  0  0  0
 20 43  1  0  0  0  0
 21 44  1  0  0  0  0
 27 45  1  0  0  0  0
 29 46  1  0  0  0  0
 29 47  1  0  0  0  0
 29 48  1  0  0  0  0
M  CHG  4   5   1  15  -1  23   1  25  -1
M  END
> <i_m_stars>
0

> <r_user_dG.exp>
-9.740725

$$$$
18639-1
  -OEChem-05162309453D
 Structure written by MMmdl.
 48 49  0     1  0  0  0  0  0999 V2000
   24.2764   10.8583   30.5311 C   0  0  0  0  0  0  0  0  0  0  0  0
   22.8724   11.1948   30.0242 C   0  0  0  0  0  0  0  0  0  0  0  0
   21.9935   11.3729   31.1346 O   0  0  0  0  0  0  0  0  0  0  0  0
   21.3005   10.2943   31.6577 C   0  0  0  0  0  0  0  0  0  0  0  0
   21.6713    9.0502   31.2482 N   0  0  0  0  0  0  0  0  0  0  0  0
   20.9501    8.0000   31.6666 C   0  0  0  0  0  0  0  0  0  0  0  0
   19.8665    8.1184   32.5257 C   0  0  0  0  0  0  0  0  0  0  0  0
   19.4926    9.3843   32.9417 C   0  0  0  0  0  0  0  0  0  0  0  0
   18.3660    9.4440   33.7525 N   0  0  0  0  0  0  0  0  0  0  0  0
   20.2180   10.5087   32.5170 C   0  0  3  0  0  0  0  0  0  0  0  0
   19.8684   11.8729   32.8958 C   0  0  0  0  0  0  0  0  0  0  0  0
   19.5992   12.9596   33.1898 N   0  0  0  0  0  0  0  0  0  0  0  0
   21.4272    6.8285   31.1136 N   0  3  0  0  0  0  0  0  0  0  0  0
   20.8583    5.6230   31.0220 C   0  0  0  0  0  0  0  0  0  0  0  0
   19.7390    5.3452   31.4465 O   0  5  0  0  0  0  0  0  0  0  0  0
   21.6500    4.5669   30.2607 C   0  0  0  0  0  0  0  0  0  0  0  0
   23.0147    4.2719   30.8751 C   0  0  0  0  0  0  0  0  0  0  0  0
   24.1184    5.0810   30.5810 C   0  0  0  0  0  0  0  0  0  0  0  0
   23.9097    6.1670   29.7482 O   0  0  0  0  0  0  0  0  0  0  0  0
   24.9546    7.1169   29.5477 C   0  0  0  0  0  0  0  0  0  0  0  0
   25.3567    4.7546   31.1456 C   0  0  0  0  0  0  0  0  0  0  0  0
   25.5076    3.6737   32.0309 C   0  0  0  0  0  0  0  0  0  0  0  0
   26.8469    3.4094   32.6231 N   0  3  0  0  0  0  0  0  0  0  0  0
   26.9382    2.7388   33.6465 O   0  0  0  0  0  0  0  0  0  0  0  0
   27.8303    3.9025   32.0768 O   0  5  0  0  0  0  0  0  0  0  0  0
   24.3855    2.8726   32.3281 C   0  0  0  0  0  0  0  0  0  0  0  0
   23.1530    3.1840   31.7378 C   0  0  0  0  0  0  0  0  0  0  0  0
   24.5282    1.8156   33.2068 O   0  0  0  0  0  0  0  0  0  0  0  0
   23.6287    0.7111   33.1397 C   0  0  0  0  0  0  0  0  0  0  0  0
   24.9529   10.7212   29.6747 H   0  0  0  0  0  0  0  0  0  0  0  0
   24.6453   11.6807   31.1617 H   0  0  0  0  0  0  0  0  0  0  0  0
   24.2404    9.9311   31.1218 H   0  0  0  0  0  0  0  0  0  0  0  0
   22.9087   12.1220   29.4334 H   0  0  0  0  0  0  0  0  0  0  0  0
   22.5038   10.3724   29.3935 H   0  0  0  0  0  0  0  0  0  0  0  0
   19.3284    7.2442   32.8613 H   0  0  0  0  0  0  0  0  0  0  0  0
   18.1313   10.3843   33.9991 H   0  0  0  0  0  0  0  0  0  0  0  0
   20.8809   10.4247   33.3908 H   0  0  0  0  0  0  0  0  0  0  0  0
   22.3439    6.8922   30.7190 H   0  0  0  0  0  0  0  0  0  0  0  0
   21.0651    3.6354   30.2472 H   0  0  0  0  0  0  0  0  0  0  0  0
   21.8008    4.9201   29.2299 H   0  0  0  0  0  0  0  0  0  0  0  0
   24.6089    7.9035   28.8608 H   0  0  0  0  0  0  0  0  0  0  0  0
   25.2301    7.5678   30.5125 H   0  0  0  0  0  0  0  0  0  0  0  0
   25.8310    6.6119   29.1154 H   0  0  0  0  0  0  0  0  0  0  0  0
   26.2213    5.3507   30.8936 H   0  0  0  0  0  0  0  0  0  0  0  0
   22.2923    2.5690   31.9553 H   0  0  0  0  0  0  0  0  0  0  0  0
   23.8955   -0.0271   33.9104 H   0  0  0  0  0  0  0  0  0  0  0  0
   22.6011    1.0644   33.3106 H   0  0  0  0  0  0  0  0  0  0  0  0
   23.6953    0.2440   32.1460 H   0  0  0  0  0  0  0  0  0  0  0  0
  1  2  1  0  0  0  0
  2  3  1  0  0  0  0
  3  4  1  0  0  0  0
  4 10  1  0  0  0  0
  4  5  2  0  0  0  0
  5  6  1  0  0  0  0
  6  7  2  0  0  0  0
  6 13  1  0  0  0  0
  7  8  1  0  0  0  0
  8  9  2  0  0  0  0
  8 10  1  0  0  0  0
 10 11  1  0  0  0  0
 11 12  3  0  0  0  0
 13 14  2  0  0  0  0
 14 15  1  0  0  0  0
 14 16  1  0  0  0  0
 16 17  1  0  0  0  0
 17 27  2  0  0  0  0
 17 18  1  0  0  0  0
 18 19  1  0  0  0  0
 18 21  2  0  0  0  0
 19 20  1  0  0  0  0
 21 22  1  0  0  0  0
 22 23  1  0  0  0  0
 22 26  2  0  0  0  0
 23 24  2  0  0  0  0
 23 25  1  0  0  0  0
 26 27  1  0  0  0  0
 26 28  1  0  0  0  0
 28 29  1  0  0  0  0
  1 30  1  0  0  0  0
  1 31  1  0  0  0  0
  1 32  1  0  0  0  0
  2 33  1  0  0  0  0
  2 34  1  0  0  0  0
  7 35  1  0  0  0  0
  9 36  1  0  0  0  0
 10 37  1  0  0  0  0
 13 38  1  0  0  0  0
 16 39  1  0  0  0  0
 16 40  1  0  0  0  0
 20 41  1  0  0  0  0
 20 42  1  0  0  0  0
 20 43  1  0  0  0  0
 21 44  1  0  0  0  0
 27 45  1  0  0  0  0
 29 46  1  0  0  0  0
 29 47  1  0  0  0  0
 29 48  1  0  0  0  0
M  CHG  4  13   1  15  -1  23   1  25  -1
M  END
> <i_m_stars>
0

> <r_user_dG.exp>
-9.740725

$$$$
18639-1
  -OEChem-05162309453D
 Structure written by MMmdl.
 48 49  0     0  0  0  0  0  0999 V2000
   24.2764   10.8583   30.5311 C   0  0  0  0  0  0  0  0  0  0  0  0
   22.8724   11.1948   30.0242 C   0  0  0  0  0  0  0  0  0  0  0  0
   21.9935   11.3729   31.1346 O   0  0  0  0  0  0  0  0  0  0  0  0
   21.3005   10.2943   31.6577 C   0  0  0  0  0  0  0  0  0  0  0  0
   21.6713    9.0502   31.2482 N   0  0  0  0  0  0  0  0  0  0  0  0
   20.9501    8.0000   31.6666 C   0  0  0  0  0  0  0  0  0  0  0  0
   19.8665    8.1184   32.5257 C   0  0  0  0  0  0  0  0  0  0  0  0
   19.4926    9.3843   32.9417 C   0  0  0  0  0  0  0  0  0  0  0  0
   18.3660    9.4440   33.7525 N   0  3  0  0  0  0  0  0  0  0  0  0
   20.2180   10.5087   32.5170 C   0  0  0  0  0  0  0  0  0  0  0  0
   19.8684   11.8729   32.8958 C   0  0  0  0  0  0  0  0  0  0  0  0
   19.5992   12.9596   33.1898 N   0  0  0  0  0  0  0  0  0  0  0  0
   21.4272    6.8285   31.1136 N   0  0  0  0  0  0  0  0  0  0  0  0
   20.8583    5.6230   31.0220 C   0  0  0  0  0  0  0  0  0  0  0  0
   19.7390    5.3452   31.4465 O   0  5  0  0  0  0  0  0  0  0  0  0
   21.6500    4.5669   30.2607 C   0  0  0  0  0  0  0  0  0  0  0  0
   23.0147    4.2719   30.8751 C   0  0  0  0  0  0  0  0  0  0  0  0
   24.1184    5.0810   30.5810 C   0  0  0  0  0  0  0  0  0  0  0  0
   23.9097    6.1670   29.7482 O   0  0  0  0  0  0  0  0  0  0  0  0
   24.9546    7.1169   29.5477 C   0  0  0  0  0  0  0  0  0  0  0  0
   25.3567    4.7546   31.1456 C   0  0  0  0  0  0  0  0  0  0  0  0
   25.5076    3.6737   32.0309 C   0  0  0  0  0  0  0  0  0  0  0  0
   26.8469    3.4094   32.6231 N   0  3  0  0  0  0  0  0  0  0  0  0
   26.9382    2.7388   33.6465 O   0  0  0  0  0  0  0  0  0  0  0  0
   27.8303    3.9025   32.0768 O   0  5  0  0  0  0  0  0  0  0  0  0
   24.3855    2.8726   32.3281 C   0  0  0  0  0  0  0  0  0  0  0  0
   23.1530    3.1840   31.7378 C   0  0  0  0  0  0  0  0  0  0  0  0
   24.5282    1.8156   33.2068 O   0  0  0  0  0  0  0  0  0  0  0  0
   23.6287    0.7111   33.1397 C   0  0  0  0  0  0  0  0  0  0  0  0
   24.9529   10.7212   29.6747 H   0  0  0  0  0  0  0  0  0  0  0  0
   24.6453   11.6807   31.1617 H   0  0  0  0  0  0  0  0  0  0  0  0
   24.2404    9.9311   31.1218 H   0  0  0  0  0  0  0  0  0  0  0  0
   22.9087   12.1220   29.4334 H   0  0  0  0  0  0  0  0  0  0  0  0
   22.5038   10.3724   29.3935 H   0  0  0  0  0  0  0  0  0  0  0  0
   18.9983    7.6732   32.0177 H   0  0  0  0  0  0  0  0  0  0  0  0
   20.1018    7.5355   33.4284 H   0  0  0  0  0  0  0  0  0  0  0  0
   18.0251   10.3287   34.0704 H   0  0  0  0  0  0  0  0  0  0  0  0
   17.8960    8.6023   34.0182 H   0  0  0  0  0  0  0  0  0  0  0  0
   21.0651    3.6354   30.2472 H   0  0  0  0  0  0  0  0  0  0  0  0
   21.8008    4.9201   29.2299 H   0  0  0  0  0  0  0  0  0  0  0  0
   24.6089    7.9035   28.8608 H   0  0  0  0  0  0  0  0  0  0  0  0
   25.2301    7.5678   30.5125 H   0  0  0  0  0  0  0  0  0  0  0  0
   25.8310    6.6119   29.1154 H   0  0  0  0  0  0  0  0  0  0  0  0
   26.2213    5.3507   30.8936 H   0  0  0  0  0  0  0  0  0  0  0  0
   22.2923    2.5690   31.9553 H   0  0  0  0  0  0  0  0  0  0  0  0
   23.8955   -0.0271   33.9104 H   0  0  0  0  0  0  0  0  0  0  0  0
   22.6011    1.0644   33.3106 H   0  0  0  0  0  0  0  0  0  0  0  0
   23.6953    0.2440   32.1460 H   0  0  0  0  0  0  0  0  0  0  0  0
  1  2  1  0  0  0  0
  2  3  1  0  0  0  0
  3  4  1  0  0  0  0
  4 10  2  0  0  0  0
  4  5  1  0  0  0  0
  5  6  2  0  0  0  0
  6  7  1  0  0  0  0
  6 13  1  0  0  0  0
  7  8  1  0  0  0  0
  8  9  2  0  0  0  0
  8 10  1  0  0  0  0
 10 11  1  0  0  0  0
 11 12  3  0  0  0  0
 13 14  2  0  0  0  0
 14 15  1  0  0  0  0
 14 16  1  0  0  0  0
 16 17  1  0  0  0  0
 17 27  2  0  0  0  0
 17 18  1  0  0  0  0
 18 19  1  0  0  0  0
 18 21  2  0  0  0  0
 19 20  1  0  0  0  0
 21 22  1  0  0  0  0
 22 23  1  0  0  0  0
 22 26  2  0  0  0  0
 23 24  2  0  0  0  0
 23 25  1  0  0  0  0
 26 27  1  0  0  0  0
 26 28  1  0  0  0  0
 28 29  1  0  0  0  0
  1 30  1  0  0  0  0
  1 31  1  0  0  0  0
  1 32  1  0  0  0  0
  2 33  1  0  0  0  0
  2 34  1  0  0  0  0
  7 35  1  0  0  0  0
  7 36  1  0  0  0  0
  9 37  1  0  0  0  0
  9 38  1  0  0  0  0
 16 39  1  0  0  0  0
 16 40  1  0  0  0  0
 20 41  1  0  0  0  0
 20 42  1  0  0  0  0
 20 43  1  0  0  0  0
 21 44  1  0  0  0  0
 27 45  1  0  0  0  0
 29 46  1  0  0  0  0
 29 47  1  0  0  0  0
 29 48  1  0  0  0  0
M  CHG  4   9   1  15  -1  23   1  25  -1
M  END
> <i_m_stars>
0

> <r_user_dG.exp>
-9.740725

$$$$
18639-1
  -OEChem-05162309453D
 Structure written by MMmdl.
 48 49  0     0  0  0  0  0  0999 V2000
   24.2764   10.8583   30.5311 C   0  0  0  0  0  0  0  0  0  0  0  0
   22.8724   11.1948   30.0242 C   0  0  0  0  0  0  0  0  0  0  0  0
   21.9935   11.3729   31.1346 O   0  0  0  0  0  0  0  0  0  0  0  0
   21.3005   10.2943   31.6577 C   0  0  0  0  0  0  0  0  0  0  0  0
   21.6713    9.0502   31.2482 N   0  3  0  0  0  0  0  0  0  0  0  0
   20.9501    8.0000   31.6666 C   0  0  0  0  0  0  0  0  0  0  0  0
   19.8665    8.1184   32.5257 C   0  0  0  0  0  0  0  0  0  0  0  0
   19.4926    9.3843   32.9417 C   0  0  0  0  0  0  0  0  0  0  0  0
   18.3660    9.4440   33.7525 N   0  0  0  0  0  0  0  0  0  0  0  0
   20.2180   10.5087   32.5170 C   0  0  0  0  0  0  0  0  0  0  0  0
   19.8684   11.8729   32.8958 C   0  0  0  0  0  0  0  0  0  0  0  0
   19.5992   12.9596   33.1898 N   0  0  0  0  0  0  0  0  0  0  0  0
   21.4272    6.8285   31.1136 N   0  0  0  0  0  0  0  0  0  0  0  0
   20.8583    5.6230   31.0220 C   0  0  0  0  0  0  0  0  0  0  0  0
   19.7390    5.3452   31.4465 O   0  5  0  0  0  0  0  0  0  0  0  0
   21.6500    4.5669   30.2607 C   0  0  0  0  0  0  0  0  0  0  0  0
   23.0147    4.2719   30.8751 C   0  0  0  0  0  0  0  0  0  0  0  0
   24.1184    5.0810   30.5810 C   0  0  0  0  0  0  0  0  0  0  0  0
   23.9097    6.1670   29.7482 O   0  0  0  0  0  0  0  0  0  0  0  0
   24.9546    7.1169   29.5477 C   0  0  0  0  0  0  0  0  0  0  0  0
   25.3567    4.7546   31.1456 C   0  0  0  0  0  0  0  0  0  0  0  0
   25.5076    3.6737   32.0309 C   0  0  0  0  0  0  0  0  0  0  0  0
   26.8469    3.4094   32.6231 N   0  3  0  0  0  0  0  0  0  0  0  0
   26.9382    2.7388   33.6465 O   0  0  0  0  0  0  0  0  0  0  0  0
   27.8303    3.9025   32.0768 O   0  5  0  0  0  0  0  0  0  0  0  0
   24.3855    2.8726   32.3281 C   0  0  0  0  0  0  0  0  0  0  0  0
   23.1530    3.1840   31.7378 C   0  0  0  0  0  0  0  0  0  0  0  0
   24.5282    1.8156   33.2068 O   0  0  0  0  0  0  0  0  0  0  0  0
   23.6287    0.7111   33.1397 C   0  0  0  0  0  0  0  0  0  0  0  0
   24.9529   10.7212   29.6747 H   0  0  0  0  0  0  0  0  0  0  0  0
   24.6453   11.6807   31.1617 H   0  0  0  0  0  0  0  0  0  0  0  0
   24.2404    9.9311   31.1218 H   0  0  0  0  0  0  0  0  0  0  0  0
   22.9087   12.1220   29.4334 H   0  0  0  0  0  0  0  0  0  0  0  0
   22.5038   10.3724   29.3935 H   0  0  0  0  0  0  0  0  0  0  0  0
   22.4623    8.9225   30.6499 H   0  0  0  0  0  0  0  0  0  0  0  0
   18.9983    7.6732   32.0177 H   0  0  0  0  0  0  0  0  0  0  0  0
   20.1018    7.5355   33.4284 H   0  0  0  0  0  0  0  0  0  0  0  0
   18.1313   10.3843   33.9991 H   0  0  0  0  0  0  0  0  0  0  0  0
   21.0651    3.6354   30.2472 H   0  0  0  0  0  0  0  0  0  0  0  0
   21.8008    4.9201   29.2299 H   0  0  0  0  0  0  0  0  0  0  0  0
   24.6089    7.9035   28.8608 H   0  0  0  0  0  0  0  0  0  0  0  0
   25.2301    7.5678   30.5125 H   0  0  0  0  0  0  0  0  0  0  0  0
   25.8310    6.6119   29.1154 H   0  0  0  0  0  0  0  0  0  0  0  0
   26.2213    5.3507   30.8936 H   0  0  0  0  0  0  0  0  0  0  0  0
   22.2923    2.5690   31.9553 H   0  0  0  0  0  0  0  0  0  0  0  0
   23.8955   -0.0271   33.9104 H   0  0  0  0  0  0  0  0  0  0  0  0
   22.6011    1.0644   33.3106 H   0  0  0  0  0  0  0  0  0  0  0  0
   23.6953    0.2440   32.1460 H   0  0  0  0  0  0  0  0  0  0  0  0
  1  2  1  0  0  0  0
  2  3  1  0  0  0  0
  3  4  1  0  0  0  0
  4 10  2  0  0  0  0
  4  5  1  0  0  0  0
  5  6  2  0  0  0  0
  6  7  1  0  0  0  0
  6 13  1  0  0  0  0
  7  8  1  0  0  0  0
  8  9  2  0  0  0  0
  8 10  1  0  0  0  0
 10 11  1  0  0  0  0
 11 12  3  0  0  0  0
 13 14  2  0  0  0  0
 14 15  1  0  0  0  0
 14 16  1  0  0  0  0
 16 17  1  0  0  0  0
 17 27  2  0  0  0  0
 17 18  1  0  0  0  0
 18 19  1  0  0  0  0
 18 21  2  0  0  0  0
 19 20  1  0  0  0  0
 21 22  1  0  0  0  0
 22 23  1  0  0  0  0
 22 26  2  0  0  0  0
 23 24  2  0  0  0  0
 23 25  1  0  0  0  0
 26 27  1  0  0  0  0
 26 28  1  0  0  0  0
 28 29  1  0  0  0  0
  1 30  1  0  0  0  0
  1 31  1  0  0  0  0
  1 32  1  0  0  0  0
  2 33  1  0  0  0  0
  2 34  1  0  0  0  0
  5 35  1  0  0  0  0
  7 36  1  0  0  0  0
  7 37  1  0  0  0  0
  9 38  1  0  0  0  0
 16 39  1  0  0  0  0
 16 40  1  0  0  0  0
 20 41  1  0  0  0  0
 20 42  1  0  0  0  0
 20 43  1  0  0  0  0
 21 44  1  0  0  0  0
 27 45  1  0  0  0  0
 29 46  1  0  0  0  0
 29 47  1  0  0  0  0
 29 48  1  0  0  0  0
M  CHG  4   5   1  15  -1  23   1  25  -1
M  END
> <i_m_stars>
0

> <r_user_dG.exp>
-9.740725

$$$$
18639-1
  -OEChem-05162309453D
 Structure written by MMmdl.
 48 49  0     0  0  0  0  0  0999 V2000
   24.2764   10.8583   30.5311 C   0  0  0  0  0  0  0  0  0  0  0  0
   22.8724   11.1948   30.0242 C   0  0  0  0  0  0  0  0  0  0  0  0
   21.9935   11.3729   31.1346 O   0  0  0  0  0  0  0  0  0  0  0  0
   21.3005   10.2943   31.6577 C   0  0  0  0  0  0  0  0  0  0  0  0
   21.6713    9.0502   31.2482 N   0  0  0  0  0  0  0  0  0  0  0  0
   20.9501    8.0000   31.6666 C   0  0  0  0  0  0  0  0  0  0  0  0
   19.8665    8.1184   32.5257 C   0  0  0  0  0  0  0  0  0  0  0  0
   19.4926    9.3843   32.9417 C   0  0  0  0  0  0  0  0  0  0  0  0
   18.3660    9.4440   33.7525 N   0  0  0  0  0  0  0  0  0  0  0  0
   20.2180   10.5087   32.5170 C   0  0  0  0  0  0  0  0  0  0  0  0
   19.8684   11.8729   32.8958 C   0  0  0  0  0  0  0  0  0  0  0  0
   19.5992   12.9596   33.1898 N   0  0  0  0  0  0  0  0  0  0  0  0
   21.4272    6.8285   31.1136 N   0  3  0  0  0  0  0  0  0  0  0  0
   20.8583    5.6230   31.0220 C   0  0  0  0  0  0  0  0  0  0  0  0
   19.7390    5.3452   31.4465 O   0  5  0  0  0  0  0  0  0  0  0  0
   21.6500    4.5669   30.2607 C   0  0  0  0  0  0  0  0  0  0  0  0
   23.0147    4.2719   30.8751 C   0  0  0  0  0  0  0  0  0  0  0  0
   24.1184    5.0810   30.5810 C   0  0  0  0  0  0  0  0  0  0  0  0
   23.9097    6.1670   29.7482 O   0  0  0  0  0  0  0  0  0  0  0  0
   24.9546    7.1169   29.5477 C   0  0  0  0  0  0  0  0  0  0  0  0
   25.3567    4.7546   31.1456 C   0  0  0  0  0  0  0  0  0  0  0  0
   25.5076    3.6737   32.0309 C   0  0  0  0  0  0  0  0  0  0  0  0
   26.8469    3.4094   32.6231 N   0  3  0  0  0  0  0  0  0  0  0  0
   26.9382    2.7388   33.6465 O   0  0  0  0  0  0  0  0  0  0  0  0
   27.8303    3.9025   32.0768 O   0  5  0  0  0  0  0  0  0  0  0  0
   24.3855    2.8726   32.3281 C   0  0  0  0  0  0  0  0  0  0  0  0
   23.1530    3.1840   31.7378 C   0  0  0  0  0  0  0  0  0  0  0  0
   24.5282    1.8156   33.2068 O   0  0  0  0  0  0  0  0  0  0  0  0
   23.6287    0.7111   33.1397 C   0  0  0  0  0  0  0  0  0  0  0  0
   24.9529   10.7212   29.6747 H   0  0  0  0  0  0  0  0  0  0  0  0
   24.6453   11.6807   31.1617 H   0  0  0  0  0  0  0  0  0  0  0  0
   24.2404    9.9311   31.1218 H   0  0  0  0  0  0  0  0  0  0  0  0
   22.9087   12.1220   29.4334 H   0  0  0  0  0  0  0  0  0  0  0  0
   22.5038   10.3724   29.3935 H   0  0  0  0  0  0  0  0  0  0  0  0
   18.9983    7.6732   32.0177 H   0  0  0  0  0  0  0  0  0  0  0  0
   20.1018    7.5355   33.4284 H   0  0  0  0  0  0  0  0  0  0  0  0
   18.1313   10.3843   33.9991 H   0  0  0  0  0  0  0  0  0  0  0  0
   22.3439    6.8922   30.7190 H   0  0  0  0  0  0  0  0  0  0  0  0
   21.0651    3.6354   30.2472 H   0  0  0  0  0  0  0  0  0  0  0  0
   21.8008    4.9201   29.2299 H   0  0  0  0  0  0  0  0  0  0  0  0
   24.6089    7.9035   28.8608 H   0  0  0  0  0  0  0  0  0  0  0  0
   25.2301    7.5678   30.5125 H   0  0  0  0  0  0  0  0  0  0  0  0
   25.8310    6.6119   29.1154 H   0  0  0  0  0  0  0  0  0  0  0  0
   26.2213    5.3507   30.8936 H   0  0  0  0  0  0  0  0  0  0  0  0
   22.2923    2.5690   31.9553 H   0  0  0  0  0  0  0  0  0  0  0  0
   23.8955   -0.0271   33.9104 H   0  0  0  0  0  0  0  0  0  0  0  0
   22.6011    1.0644   33.3106 H   0  0  0  0  0  0  0  0  0  0  0  0
   23.6953    0.2440   32.1460 H   0  0  0  0  0  0  0  0  0  0  0  0
  1  2  1  0  0  0  0
  2  3  1  0  0  0  0
  3  4  1  0  0  0  0
  4 10  2  0  0  0  0
  4  5  1  0  0  0  0
  5  6  2  0  0  0  0
  6  7  1  0  0  0  0
  6 13  1  0  0  0  0
  7  8  1  0  0  0  0
  8  9  2  0  0  0  0
  8 10  1  0  0  0  0
 10 11  1  0  0  0  0
 11 12  3  0  0  0  0
 13 14  2  0  0  0  0
 14 15  1  0  0  0  0
 14 16  1  0  0  0  0
 16 17  1  0  0  0  0
 17 27  2  0  0  0  0
 17 18  1  0  0  0  0
 18 19  1  0  0  0  0
 18 21  2  0  0  0  0
 19 20  1  0  0  0  0
 21 22  1  0  0  0  0
 22 23  1  0  0  0  0
 22 26  2  0  0  0  0
 23 24  2  0  0  0  0
 23 25  1  0  0  0  0
 26 27  1  0  0  0  0
 26 28  1  0  0  0  0
 28 29  1  0  0  0  0
  1 30  1  0  0  0  0
  1 31  1  0  0  0  0
  1 32  1  0  0  0  0
  2 33  1  0  0  0  0
  2 34  1  0  0  0  0
  7 35  1  0  0  0  0
  7 36  1  0  0  0  0
  9 37  1  0  0  0  0
 13 38  1  0  0  0  0
 16 39  1  0  0  0  0
 16 40  1  0  0  0  0
 20 41  1  0  0  0  0
 20 42  1  0  0  0  0
 20 43  1  0  0  0  0
 21 44  1  0  0  0  0
 27 45  1  0  0  0  0
 29 46  1  0  0  0  0
 29 47  1  0  0  0  0
 29 48  1  0  0  0  0
M  CHG  4  13   1  15  -1  23   1  25  -1
M  END
> <i_m_stars>
0

> <r_user_dG.exp>
-9.740725

$$$$
18639-1
  -OEChem-05162309453D
 Structure written by MMmdl.
 48 49  0     0  0  0  0  0  0999 V2000
   24.2764   10.8583   30.5311 C   0  0  0  0  0  0  0  0  0  0  0  0
   22.8724   11.1948   30.0242 C   0  0  0  0  0  0  0  0  0  0  0  0
   21.9935   11.3729   31.1346 O   0  0  0  0  0  0  0  0  0  0  0  0
   21.3005   10.2943   31.6577 C   0  0  0  0  0  0  0  0  0  0  0  0
   21.6713    9.0502   31.2482 N   0  3  0  0  0  0  0  0  0  0  0  0
   20.9501    8.0000   31.6666 C   0  0  0  0  0  0  0  0  0  0  0  0
   19.8665    8.1184   32.5257 C   0  0  0  0  0  0  0  0  0  0  0  0
   19.4926    9.3843   32.9417 C   0  0  0  0  0  0  0  0  0  0  0  0
   18.3660    9.4440   33.7525 N   0  3  0  0  0  0  0  0  0  0  0  0
   20.2180   10.5087   32.5170 C   0  0  0  0  0  0  0  0  0  0  0  0
   19.8684   11.8729   32.8958 C   0  0  0  0  0  0  0  0  0  0  0  0
   19.5992   12.9596   33.1898 N   0  5  0  0  0  0  0  0  0  0  0  0
   21.4272    6.8285   31.1136 N   0  0  0  0  0  0  0  0  0  0  0  0
   20.8583    5.6230   31.0220 C   0  0  0  0  0  0  0  0  0  0  0  0
   19.7390    5.3452   31.4465 O   0  5  0  0  0  0  0  0  0  0  0  0
   21.6500    4.5669   30.2607 C   0  0  0  0  0  0  0  0  0  0  0  0
   23.0147    4.2719   30.8751 C   0  0  0  0  0  0  0  0  0  0  0  0
   24.1184    5.0810   30.5810 C   0  0  0  0  0  0  0  0  0  0  0  0
   23.9097    6.1670   29.7482 O   0  0  0  0  0  0  0  0  0  0  0  0
   24.9546    7.1169   29.5477 C   0  0  0  0  0  0  0  0  0  0  0  0
   25.3567    4.7546   31.1456 C   0  0  0  0  0  0  0  0  0  0  0  0
   25.5076    3.6737   32.0309 C   0  0  0  0  0  0  0  0  0  0  0  0
   26.8469    3.4094   32.6231 N   0  3  0  0  0  0  0  0  0  0  0  0
   26.9382    2.7388   33.6465 O   0  0  0  0  0  0  0  0  0  0  0  0
   27.8303    3.9025   32.0768 O   0  5  0  0  0  0  0  0  0  0  0  0
   24.3855    2.8726   32.3281 C   0  0  0  0  0  0  0  0  0  0  0  0
   23.1530    3.1840   31.7378 C   0  0  0  0  0  0  0  0  0  0  0  0
   24.5282    1.8156   33.2068 O   0  0  0  0  0  0  0  0  0  0  0  0
   23.6287    0.7111   33.1397 C   0  0  0  0  0  0  0  0  0  0  0  0
   24.9529   10.7212   29.6747 H   0  0  0  0  0  0  0  0  0  0  0  0
   24.6453   11.6807   31.1617 H   0  0  0  0  0  0  0  0  0  0  0  0
   24.2404    9.9311   31.1218 H   0  0  0  0  0  0  0  0  0  0  0  0
   22.9087   12.1220   29.4334 H   0  0  0  0  0  0  0  0  0  0  0  0
   22.5038   10.3724   29.3935 H   0  0  0  0  0  0  0  0  0  0  0  0
   22.4623    8.9225   30.6499 H   0  0  0  0  0  0  0  0  0  0  0  0
   19.3284    7.2442   32.8613 H   0  0  0  0  0  0  0  0  0  0  0  0
   18.0251   10.3287   34.0704 H   0  0  0  0  0  0  0  0  0  0  0  0
   17.8960    8.6023   34.0182 H   0  0  0  0  0  0  0  0  0  0  0  0
   21.0651    3.6354   30.2472 H   0  0  0  0  0  0  0  0  0  0  0  0
   21.8008    4.9201   29.2299 H   0  0  0  0  0  0  0  0  0  0  0  0
   24.6089    7.9035   28.8608 H   0  0  0  0  0  0  0  0  0  0  0  0
   25.2301    7.5678   30.5125 H   0  0  0  0  0  0  0  0  0  0  0  0
   25.8310    6.6119   29.1154 H   0  0  0  0  0  0  0  0  0  0  0  0
   26.2213    5.3507   30.8936 H   0  0  0  0  0  0  0  0  0  0  0  0
   22.2923    2.5690   31.9553 H   0  0  0  0  0  0  0  0  0  0  0  0
   23.8955   -0.0271   33.9104 H   0  0  0  0  0  0  0  0  0  0  0  0
   22.6011    1.0644   33.3106 H   0  0  0  0  0  0  0  0  0  0  0  0
   23.6953    0.2440   32.1460 H   0  0  0  0  0  0  0  0  0  0  0  0
  1  2  1  0  0  0  0
  2  3  1  0  0  0  0
  3  4  1  0  0  0  0
  4 10  1  0  0  0  0
  4  5  2  0  0  0  0
  5  6  1  0  0  0  0
  6  7  2  0  0  0  0
  6 13  1  0  0  0  0
  7  8  1  0  0  0  0
  8  9  2  0  0  0  0
  8 10  1  0  0  0  0
 10 11  2  0  0  0  0
 11 12  2  0  0  0  0
 13 14  2  0  0  0  0
 14 15  1  0  0  0  0
 14 16  1  0  0  0  0
 16 17  1  0  0  0  0
 17 27  2  0  0  0  0
 17 18  1  0  0  0  0
 18 19  1  0  0  0  0
 18 21  2  0  0  0  0
 19 20  1  0  0  0  0
 21 22  1  0  0  0  0
 22 23  1  0  0  0  0
 22 26  2  0  0  0  0
 23 24  2  0  0  0  0
 23 25  1  0  0  0  0
 26 27  1  0  0  0  0
 26 28  1  0  0  0  0
 28 29  1  0  0  0  0
  1 30  1  0  0  0  0
  1 31  1  0  0  0  0
  1 32  1  0  0  0  0
  2 33  1  0  0  0  0
  2 34  1  0  0  0  0
  5 35  1  0  0  0  0
  7 36  1  0  0  0  0
  9 37  1  0  0  0  0
  9 38  1  0  0  0  0
 16 39  1  0  0  0  0
 16 40  1  0  0  0  0
 20 41  1  0  0  0  0
 20 42  1  0  0  0  0
 20 43  1  0  0  0  0
 21 44  1  0  0  0  0
 27 45  1  0  0  0  0
 29 46  1  0  0  0  0
 29 47  1  0  0  0  0
 29 48  1  0  0  0  0
M  CHG  6   5   1   9   1  12  -1  15  -1  23   1  25  -1
M  END
> <i_m_stars>
0

> <r_user_dG.exp>
-9.740725

$$$$
18639-1
  -OEChem-05162309453D
 Structure written by MMmdl.
 48 49  0     0  0  0  0  0  0999 V2000
   24.2764   10.8583   30.5311 C   0  0  0  0  0  0  0  0  0  0  0  0
   22.8724   11.1948   30.0242 C   0  0  0  0  0  0  0  0  0  0  0  0
   21.9935   11.3729   31.1346 O   0  0  0  0  0  0  0  0  0  0  0  0
   21.3005   10.2943   31.6577 C   0  0  0  0  0  0  0  0  0  0  0  0
   21.6713    9.0502   31.2482 N   0  0  0  0  0  0  0  0  0  0  0  0
   20.9501    8.0000   31.6666 C   0  0  0  0  0  0  0  0  0  0  0  0
   19.8665    8.1184   32.5257 C   0  0  0  0  0  0  0  0  0  0  0  0
   19.4926    9.3843   32.9417 C   0  0  0  0  0  0  0  0  0  0  0  0
   18.3660    9.4440   33.7525 N   0  3  0  0  0  0  0  0  0  0  0  0
   20.2180   10.5087   32.5170 C   0  0  0  0  0  0  0  0  0  0  0  0
   19.8684   11.8729   32.8958 C   0  0  0  0  0  0  0  0  0  0  0  0
   19.5992   12.9596   33.1898 N   0  5  0  0  0  0  0  0  0  0  0  0
   21.4272    6.8285   31.1136 N   0  3  0  0  0  0  0  0  0  0  0  0
   20.8583    5.6230   31.0220 C   0  0  0  0  0  0  0  0  0  0  0  0
   19.7390    5.3452   31.4465 O   0  5  0  0  0  0  0  0  0  0  0  0
   21.6500    4.5669   30.2607 C   0  0  0  0  0  0  0  0  0  0  0  0
   23.0147    4.2719   30.8751 C   0  0  0  0  0  0  0  0  0  0  0  0
   24.1184    5.0810   30.5810 C   0  0  0  0  0  0  0  0  0  0  0  0
   23.9097    6.1670   29.7482 O   0  0  0  0  0  0  0  0  0  0  0  0
   24.9546    7.1169   29.5477 C   0  0  0  0  0  0  0  0  0  0  0  0
   25.3567    4.7546   31.1456 C   0  0  0  0  0  0  0  0  0  0  0  0
   25.5076    3.6737   32.0309 C   0  0  0  0  0  0  0  0  0  0  0  0
   26.8469    3.4094   32.6231 N   0  3  0  0  0  0  0  0  0  0  0  0
   26.9382    2.7388   33.6465 O   0  0  0  0  0  0  0  0  0  0  0  0
   27.8303    3.9025   32.0768 O   0  5  0  0  0  0  0  0  0  0  0  0
   24.3855    2.8726   32.3281 C   0  0  0  0  0  0  0  0  0  0  0  0
   23.1530    3.1840   31.7378 C   0  0  0  0  0  0  0  0  0  0  0  0
   24.5282    1.8156   33.2068 O   0  0  0  0  0  0  0  0  0  0  0  0
   23.6287    0.7111   33.1397 C   0  0  0  0  0  0  0  0  0  0  0  0
   24.9529   10.7212   29.6747 H   0  0  0  0  0  0  0  0  0  0  0  0
   24.6453   11.6807   31.1617 H   0  0  0  0  0  0  0  0  0  0  0  0
   24.2404    9.9311   31.1218 H   0  0  0  0  0  0  0  0  0  0  0  0
   22.9087   12.1220   29.4334 H   0  0  0  0  0  0  0  0  0  0  0  0
   22.5038   10.3724   29.3935 H   0  0  0  0  0  0  0  0  0  0  0  0
   19.3284    7.2442   32.8613 H   0  0  0  0  0  0  0  0  0  0  0  0
   18.0251   10.3287   34.0704 H   0  0  0  0  0  0  0  0  0  0  0  0
   17.8960    8.6023   34.0182 H   0  0  0  0  0  0  0  0  0  0  0  0
   22.3439    6.8922   30.7190 H   0  0  0  0  0  0  0  0  0  0  0  0
   21.0651    3.6354   30.2472 H   0  0  0  0  0  0  0  0  0  0  0  0
   21.8008    4.9201   29.2299 H   0  0  0  0  0  0  0  0  0  0  0  0
   24.6089    7.9035   28.8608 H   0  0  0  0  0  0  0  0  0  0  0  0
   25.2301    7.5678   30.5125 H   0  0  0  0  0  0  0  0  0  0  0  0
   25.8310    6.6119   29.1154 H   0  0  0  0  0  0  0  0  0  0  0  0
   26.2213    5.3507   30.8936 H   0  0  0  0  0  0  0  0  0  0  0  0
   22.2923    2.5690   31.9553 H   0  0  0  0  0  0  0  0  0  0  0  0
   23.8955   -0.0271   33.9104 H   0  0  0  0  0  0  0  0  0  0  0  0
   22.6011    1.0644   33.3106 H   0  0  0  0  0  0  0  0  0  0  0  0
   23.6953    0.2440   32.1460 H   0  0  0  0  0  0  0  0  0  0  0  0
  1  2  1  0  0  0  0
  2  3  1  0  0  0  0
  3  4  1  0  0  0  0
  4 10  1  0  0  0  0
  4  5  2  0  0  0  0
  5  6  1  0  0  0  0
  6  7  2  0  0  0  0
  6 13  1  0  0  0  0
  7  8  1  0  0  0  0
  8  9  2  0  0  0  0
  8 10  1  0  0  0  0
 10 11  2  0  0  0  0
 11 12  2  0  0  0  0
 13 14  2  0  0  0  0
 14 15  1  0  0  0  0
 14 16  1  0  0  0  0
 16 17  1  0  0  0  0
 17 27  2  0  0  0  0
 17 18  1  0  0  0  0
 18 19  1  0  0  0  0
 18 21  2  0  0  0  0
 19 20  1  0  0  0  0
 21 22  1  0  0  0  0
 22 23  1  0  0  0  0
 22 26  2  0  0  0  0
 23 24  2  0  0  0  0
 23 25  1  0  0  0  0
 26 27  1  0  0  0  0
 26 28  1  0  0  0  0
 28 29  1  0  0  0  0
  1 30  1  0  0  0  0
  1 31  1  0  0  0  0
  1 32  1  0  0  0  0
  2 33  1  0  0  0  0
  2 34  1  0  0  0  0
  7 35  1  0  0  0  0
  9 36  1  0  0  0  0
  9 37  1  0  0  0  0
 13 38  1  0  0  0  0
 16 39  1  0  0  0  0
 16 40  1  0  0  0  0
 20 41  1  0  0  0  0
 20 42  1  0  0  0  0
 20 43  1  0  0  0  0
 21 44  1  0  0  0  0
 27 45  1  0  0  0  0
 29 46  1  0  0  0  0
 29 47  1  0  0  0  0
 29 48  1  0  0  0  0
M  CHG  6   9   1  12  -1  13   1  15  -1  23   1  25  -1
M  END
> <i_m_stars>
0

> <r_user_dG.exp>
-9.740725

$$$$
18639-1
  -OEChem-05162309453D
 Structure written by MMmdl.
 48 49  0     0  0  0  0  0  0999 V2000
   24.2764   10.8583   30.5311 C   0  0  0  0  0  0  0  0  0  0  0  0
   22.8724   11.1948   30.0242 C   0  0  0  0  0  0  0  0  0  0  0  0
   21.9935   11.3729   31.1346 O   0  0  0  0  0  0  0  0  0  0  0  0
   21.3005   10.2943   31.6577 C   0  0  0  0  0  0  0  0  0  0  0  0
   21.6713    9.0502   31.2482 N   0  3  0  0  0  0  0  0  0  0  0  0
   20.9501    8.0000   31.6666 C   0  0  0  0  0  0  0  0  0  0  0  0
   19.8665    8.1184   32.5257 C   0  0  0  0  0  0  0  0  0  0  0  0
   19.4926    9.3843   32.9417 C   0  0  0  0  0  0  0  0  0  0  0  0
   18.3660    9.4440   33.7525 N   0  0  0  0  0  0  0  0  0  0  0  0
   20.2180   10.5087   32.5170 C   0  0  0  0  0  0  0  0  0  0  0  0
   19.8684   11.8729   32.8958 C   0  0  0  0  0  0  0  0  0  0  0  0
   19.5992   12.9596   33.1898 N   0  5  0  0  0  0  0  0  0  0  0  0
   21.4272    6.8285   31.1136 N   0  3  0  0  0  0  0  0  0  0  0  0
   20.8583    5.6230   31.0220 C   0  0  0  0  0  0  0  0  0  0  0  0
   19.7390    5.3452   31.4465 O   0  5  0  0  0  0  0  0  0  0  0  0
   21.6500    4.5669   30.2607 C   0  0  0  0  0  0  0  0  0  0  0  0
   23.0147    4.2719   30.8751 C   0  0  0  0  0  0  0  0  0  0  0  0
   24.1184    5.0810   30.5810 C   0  0  0  0  0  0  0  0  0  0  0  0
   23.9097    6.1670   29.7482 O   0  0  0  0  0  0  0  0  0  0  0  0
   24.9546    7.1169   29.5477 C   0  0  0  0  0  0  0  0  0  0  0  0
   25.3567    4.7546   31.1456 C   0  0  0  0  0  0  0  0  0  0  0  0
   25.5076    3.6737   32.0309 C   0  0  0  0  0  0  0  0  0  0  0  0
   26.8469    3.4094   32.6231 N   0  3  0  0  0  0  0  0  0  0  0  0
   26.9382    2.7388   33.6465 O   0  0  0  0  0  0  0  0  0  0  0  0
   27.8303    3.9025   32.0768 O   0  5  0  0  0  0  0  0  0  0  0  0
   24.3855    2.8726   32.3281 C   0  0  0  0  0  0  0  0  0  0  0  0
   23.1530    3.1840   31.7378 C   0  0  0  0  0  0  0  0  0  0  0  0
   24.5282    1.8156   33.2068 O   0  0  0  0  0  0  0  0  0  0  0  0
   23.6287    0.7111   33.1397 C   0  0  0  0  0  0  0  0  0  0  0  0
   24.9529   10.7212   29.6747 H   0  0  0  0  0  0  0  0  0  0  0  0
   24.6453   11.6807   31.1617 H   0  0  0  0  0  0  0  0  0  0  0  0
   24.2404    9.9311   31.1218 H   0  0  0  0  0  0  0  0  0  0  0  0
   22.9087   12.1220   29.4334 H   0  0  0  0  0  0  0  0  0  0  0  0
   22.5038   10.3724   29.3935 H   0  0  0  0  0  0  0  0  0  0  0  0
   22.4623    8.9225   30.6499 H   0  0  0  0  0  0  0  0  0  0  0  0
   19.3284    7.2442   32.8613 H   0  0  0  0  0  0  0  0  0  0  0  0
   18.1313   10.3843   33.9991 H   0  0  0  0  0  0  0  0  0  0  0  0
   22.3439    6.8922   30.7190 H   0  0  0  0  0  0  0  0  0  0  0  0
   21.0651    3.6354   30.2472 H   0  0  0  0  0  0  0  0  0  0  0  0
   21.8008    4.9201   29.2299 H   0  0  0  0  0  0  0  0  0  0  0  0
   24.6089    7.9035   28.8608 H   0  0  0  0  0  0  0  0  0  0  0  0
   25.2301    7.5678   30.5125 H   0  0  0  0  0  0  0  0  0  0  0  0
   25.8310    6.6119   29.1154 H   0  0  0  0  0  0  0  0  0  0  0  0
   26.2213    5.3507   30.8936 H   0  0  0  0  0  0  0  0  0  0  0  0
   22.2923    2.5690   31.9553 H   0  0  0  0  0  0  0  0  0  0  0  0
   23.8955   -0.0271   33.9104 H   0  0  0  0  0  0  0  0  0  0  0  0
   22.6011    1.0644   33.3106 H   0  0  0  0  0  0  0  0  0  0  0  0
   23.6953    0.2440   32.1460 H   0  0  0  0  0  0  0  0  0  0  0  0
  1  2  1  0  0  0  0
  2  3  1  0  0  0  0
  3  4  1  0  0  0  0
  4 10  1  0  0  0  0
  4  5  2  0  0  0  0
  5  6  1  0  0  0  0
  6  7  2  0  0  0  0
  6 13  1  0  0  0  0
  7  8  1  0  0  0  0
  8  9  2  0  0  0  0
  8 10  1  0  0  0  0
 10 11  2  0  0  0  0
 11 12  2  0  0  0  0
 13 14  2  0  0  0  0
 14 15  1  0  0  0  0
 14 16  1  0  0  0  0
 16 17  1  0  0  0  0
 17 27  2  0  0  0  0
 17 18  1  0  0  0  0
 18 19  1  0  0  0  0
 18 21  2  0  0  0  0
 19 20  1  0  0  0  0
 21 22  1  0  0  0  0
 22 23  1  0  0  0  0
 22 26  2  0  0  0  0
 23 24  2  0  0  0  0
 23 25  1  0  0  0  0
 26 27  1  0  0  0  0
 26 28  1  0  0  0  0
 28 29  1  0  0  0  0
  1 30  1  0  0  0  0
  1 31  1  0  0  0  0
  1 32  1  0  0  0  0
  2 33  1  0  0  0  0
  2 34  1  0  0  0  0
  5 35  1  0  0  0  0
  7 36  1  0  0  0  0
  9 37  1  0  0  0  0
 13 38  1  0  0  0  0
 16 39  1  0  0  0  0
 16 40  1  0  0  0  0
 20 41  1  0  0  0  0
 20 42  1  0  0  0  0
 20 43  1  0  0  0  0
 21 44  1  0  0  0  0
 27 45  1  0  0  0  0
 29 46  1  0  0  0  0
 29 47  1  0  0  0  0
 29 48  1  0  0  0  0
M  CHG  6   5   1  12  -1  13   1  15  -1  23   1  25  -1
M  END
> <i_m_stars>
0

> <r_user_dG.exp>
-9.740725

$$$$
