18659-1
  -OEChem-05162309453D
 Structure written by MMmdl.
 50 51  0     0  0  0  0  0  0999 V2000
   25.3050   12.1344   28.3533 C   0  0  0  0  0  0  0  0  0  0  0  0
   25.3255   12.3475   29.7610 O   0  0  0  0  0  0  0  0  0  0  0  0
   24.0339   12.4868   30.3516 C   0  0  0  0  0  0  0  0  0  0  0  0
   23.3142   11.1388   30.5400 C   0  0  0  0  0  0  0  0  0  0  0  0
   22.1418   11.3640   31.3238 O   0  0  0  0  0  0  0  0  0  0  0  0
   21.3619   10.2949   31.7280 C   0  0  0  0  0  0  0  0  0  0  0  0
   21.7291    9.0548   31.3049 N   0  0  0  0  0  0  0  0  0  0  0  0
   20.9668    8.0091   31.6649 C   0  0  0  0  0  0  0  0  0  0  0  0
   19.8501    8.1315   32.4812 C   0  0  0  0  0  0  0  0  0  0  0  0
   19.4780    9.3944   32.9057 C   0  0  0  0  0  0  0  0  0  0  0  0
   18.3316    9.4546   33.6892 N   0  0  0  0  0  0  0  0  0  0  0  0
   20.2337   10.5143   32.5251 C   0  0  0  0  0  0  0  0  0  0  0  0
   19.8862   11.8780   32.9066 C   0  0  0  0  0  0  0  0  0  0  0  0
   19.6195   12.9648   33.2019 N   0  0  0  0  0  0  0  0  0  0  0  0
   21.4412    6.8348   31.1127 N   0  0  0  0  0  0  0  0  0  0  0  0
   20.8679    5.6312   31.0118 C   0  0  0  0  0  0  0  0  0  0  0  0
   19.7432    5.3541   31.4246 O   0  0  0  0  0  0  0  0  0  0  0  0
   21.6641    4.5751   30.2539 C   0  0  0  0  0  0  0  0  0  0  0  0
   23.0297    4.2834   30.8691 C   0  0  0  0  0  0  0  0  0  0  0  0
   24.1299    5.1089   30.5871 C   0  0  0  0  0  0  0  0  0  0  0  0
   23.9130    6.2046   29.7697 O   0  0  0  0  0  0  0  0  0  0  0  0
   24.9454    7.1747   29.6060 C   0  0  0  0  0  0  0  0  0  0  0  0
   25.3741    4.7857   31.1456 C   0  0  0  0  0  0  0  0  0  0  0  0
   25.5056    3.6911   32.0008 C   0  0  0  0  0  0  0  0  0  0  0  0
   24.4142    2.8780   32.2954 C   0  0  0  0  0  0  0  0  0  0  0  0
   23.1745    3.1802   31.7177 C   0  0  0  0  0  0  0  0  0  0  0  0
   24.6372    1.8269   33.1598 O   0  0  0  0  0  0  0  0  0  0  0  0
   23.7198    0.7356   33.1705 C   0  0  0  0  0  0  0  0  0  0  0  0
   26.3358   12.0383   27.9814 H   0  0  0  0  0  0  0  0  0  0  0  0
   24.7475   11.2128   28.1302 H   0  0  0  0  0  0  0  0  0  0  0  0
   24.8156   12.9874   27.8605 H   0  0  0  0  0  0  0  0  0  0  0  0
   24.1474   12.9649   31.3357 H   0  0  0  0  0  0  0  0  0  0  0  0
   23.4178   13.1261   29.7022 H   0  0  0  0  0  0  0  0  0  0  0  0
   23.0331   10.7267   29.5596 H   0  0  0  0  0  0  0  0  0  0  0  0
   23.9783   10.4315   31.0583 H   0  0  0  0  0  0  0  0  0  0  0  0
   19.2849    7.2604   32.7779 H   0  0  0  0  0  0  0  0  0  0  0  0
   18.1497   10.4048   33.9422 H   0  0  0  0  0  0  0  0  0  0  0  0
   17.5555    9.0930   33.1725 H   0  0  0  0  0  0  0  0  0  0  0  0
   22.3616    6.8948   30.7263 H   0  0  0  0  0  0  0  0  0  0  0  0
   21.0814    3.6422   30.2418 H   0  0  0  0  0  0  0  0  0  0  0  0
   21.8149    4.9266   29.2226 H   0  0  0  0  0  0  0  0  0  0  0  0
   24.5993    7.9683   28.9275 H   0  0  0  0  0  0  0  0  0  0  0  0
   25.1959    7.6119   30.5838 H   0  0  0  0  0  0  0  0  0  0  0  0
   25.8377    6.6921   29.1806 H   0  0  0  0  0  0  0  0  0  0  0  0
   26.2387    5.3893   30.9119 H   0  0  0  0  0  0  0  0  0  0  0  0
   26.4673    3.4714   32.4404 H   0  0  0  0  0  0  0  0  0  0  0  0
   22.3202    2.5543   31.9297 H   0  0  0  0  0  0  0  0  0  0  0  0
   24.0443   -0.0096   33.9117 H   0  0  0  0  0  0  0  0  0  0  0  0
   22.7169    1.1024   33.4343 H   0  0  0  0  0  0  0  0  0  0  0  0
   23.6901    0.2720   32.1734 H   0  0  0  0  0  0  0  0  0  0  0  0
  1  2  1  0  0  0  0
  2  3  1  0  0  0  0
  3  4  1  0  0  0  0
  4  5  1  0  0  0  0
  5  6  1  0  0  0  0
  6 12  2  0  0  0  0
  6  7  1  0  0  0  0
  7  8  2  0  0  0  0
  8  9  1  0  0  0  0
  8 15  1  0  0  0  0
  9 10  2  0  0  0  0
 10 11  1  0  0  0  0
 10 12  1  0  0  0  0
 12 13  1  0  0  0  0
 13 14  3  0  0  0  0
 15 16  1  0  0  0  0
 16 17  2  0  0  0  0
 16 18  1  0  0  0  0
 18 19  1  0  0  0  0
 19 26  2  0  0  0  0
 19 20  1  0  0  0  0
 20 21  1  0  0  0  0
 20 23  2  0  0  0  0
 21 22  1  0  0  0  0
 23 24  1  0  0  0  0
 24 25  2  0  0  0  0
 25 26  1  0  0  0  0
 25 27  1  0  0  0  0
 27 28  1  0  0  0  0
  1 29  1  0  0  0  0
  1 30  1  0  0  0  0
  1 31  1  0  0  0  0
  3 32  1  0  0  0  0
  3 33  1  0  0  0  0
  4 34  1  0  0  0  0
  4 35  1  0  0  0  0
  9 36  1  0  0  0  0
 11 37  1  0  0  0  0
 11 38  1  0  0  0  0
 15 39  1  0  0  0  0
 18 40  1  0  0  0  0
 18 41  1  0  0  0  0
 22 42  1  0  0  0  0
 22 43  1  0  0  0  0
 22 44  1  0  0  0  0
 23 45  1  0  0  0  0
 24 46  1  0  0  0  0
 26 47  1  0  0  0  0
 28 48  1  0  0  0  0
 28 49  1  0  0  0  0
 28 50  1  0  0  0  0
M  END
> <i_m_stars>
0

> <r_user_dG.exp>
-9.465222

$$$$
18659-1
  -OEChem-05162309453D
 Structure written by MMmdl.
 50 51  0     0  0  0  0  0  0999 V2000
   25.3050   12.1344   28.3533 C   0  0  0  0  0  0  0  0  0  0  0  0
   25.3255   12.3475   29.7610 O   0  0  0  0  0  0  0  0  0  0  0  0
   24.0339   12.4868   30.3516 C   0  0  0  0  0  0  0  0  0  0  0  0
   23.3142   11.1388   30.5400 C   0  0  0  0  0  0  0  0  0  0  0  0
   22.1418   11.3640   31.3238 O   0  0  0  0  0  0  0  0  0  0  0  0
   21.3619   10.2949   31.7280 C   0  0  0  0  0  0  0  0  0  0  0  0
   21.7291    9.0548   31.3049 N   0  0  0  0  0  0  0  0  0  0  0  0
   20.9668    8.0091   31.6649 C   0  0  0  0  0  0  0  0  0  0  0  0
   19.8501    8.1315   32.4812 C   0  0  0  0  0  0  0  0  0  0  0  0
   19.4780    9.3944   32.9057 C   0  0  0  0  0  0  0  0  0  0  0  0
   18.3316    9.4546   33.6892 N   0  0  0  0  0  0  0  0  0  0  0  0
   20.2337   10.5143   32.5251 C   0  0  0  0  0  0  0  0  0  0  0  0
   19.8862   11.8780   32.9066 C   0  0  0  0  0  0  0  0  0  0  0  0
   19.6195   12.9648   33.2019 N   0  0  0  0  0  0  0  0  0  0  0  0
   21.4412    6.8348   31.1127 N   0  0  0  0  0  0  0  0  0  0  0  0
   20.8679    5.6312   31.0118 C   0  0  0  0  0  0  0  0  0  0  0  0
   19.7432    5.3541   31.4246 O   0  0  0  0  0  0  0  0  0  0  0  0
   21.6641    4.5751   30.2539 C   0  0  0  0  0  0  0  0  0  0  0  0
   23.0297    4.2834   30.8691 C   0  0  0  0  0  0  0  0  0  0  0  0
   24.1299    5.1089   30.5871 C   0  0  0  0  0  0  0  0  0  0  0  0
   23.9130    6.2046   29.7697 O   0  0  0  0  0  0  0  0  0  0  0  0
   24.9454    7.1747   29.6060 C   0  0  0  0  0  0  0  0  0  0  0  0
   25.3741    4.7857   31.1456 C   0  0  0  0  0  0  0  0  0  0  0  0
   25.5056    3.6911   32.0008 C   0  0  0  0  0  0  0  0  0  0  0  0
   24.4142    2.8780   32.2954 C   0  0  0  0  0  0  0  0  0  0  0  0
   23.1745    3.1802   31.7177 C   0  0  0  0  0  0  0  0  0  0  0  0
   24.6372    1.8269   33.1598 O   0  0  0  0  0  0  0  0  0  0  0  0
   23.7198    0.7356   33.1705 C   0  0  0  0  0  0  0  0  0  0  0  0
   26.3358   12.0383   27.9814 H   0  0  0  0  0  0  0  0  0  0  0  0
   24.7475   11.2128   28.1302 H   0  0  0  0  0  0  0  0  0  0  0  0
   24.8156   12.9874   27.8605 H   0  0  0  0  0  0  0  0  0  0  0  0
   24.1474   12.9649   31.3357 H   0  0  0  0  0  0  0  0  0  0  0  0
   23.4178   13.1261   29.7022 H   0  0  0  0  0  0  0  0  0  0  0  0
   23.0331   10.7267   29.5596 H   0  0  0  0  0  0  0  0  0  0  0  0
   23.9783   10.4315   31.0583 H   0  0  0  0  0  0  0  0  0  0  0  0
   19.2849    7.2604   32.7779 H   0  0  0  0  0  0  0  0  0  0  0  0
   18.1497   10.4048   33.9422 H   0  0  0  0  0  0  0  0  0  0  0  0
   17.5555    9.0930   33.1725 H   0  0  0  0  0  0  0  0  0  0  0  0
   19.5537    4.4416   31.2404 H   0  0  0  0  0  0  0  0  0  0  0  0
   21.0814    3.6422   30.2418 H   0  0  0  0  0  0  0  0  0  0  0  0
   21.8149    4.9266   29.2226 H   0  0  0  0  0  0  0  0  0  0  0  0
   24.5993    7.9683   28.9275 H   0  0  0  0  0  0  0  0  0  0  0  0
   25.1959    7.6119   30.5838 H   0  0  0  0  0  0  0  0  0  0  0  0
   25.8377    6.6921   29.1806 H   0  0  0  0  0  0  0  0  0  0  0  0
   26.2387    5.3893   30.9119 H   0  0  0  0  0  0  0  0  0  0  0  0
   26.4673    3.4714   32.4404 H   0  0  0  0  0  0  0  0  0  0  0  0
   22.3202    2.5543   31.9297 H   0  0  0  0  0  0  0  0  0  0  0  0
   24.0443   -0.0096   33.9117 H   0  0  0  0  0  0  0  0  0  0  0  0
   22.7169    1.1024   33.4343 H   0  0  0  0  0  0  0  0  0  0  0  0
   23.6901    0.2720   32.1734 H   0  0  0  0  0  0  0  0  0  0  0  0
  1  2  1  0  0  0  0
  2  3  1  0  0  0  0
  3  4  1  0  0  0  0
  4  5  1  0  0  0  0
  5  6  1  0  0  0  0
  6 12  2  0  0  0  0
  6  7  1  0  0  0  0
  7  8  2  0  0  0  0
  8  9  1  0  0  0  0
  8 15  1  0  0  0  0
  9 10  2  0  0  0  0
 10 11  1  0  0  0  0
 10 12  1  0  0  0  0
 12 13  1  0  0  0  0
 13 14  3  0  0  0  0
 15 16  2  0  0  0  0
 16 17  1  0  0  0  0
 16 18  1  0  0  0  0
 18 19  1  0  0  0  0
 19 26  2  0  0  0  0
 19 20  1  0  0  0  0
 20 21  1  0  0  0  0
 20 23  2  0  0  0  0
 21 22  1  0  0  0  0
 23 24  1  0  0  0  0
 24 25  2  0  0  0  0
 25 26  1  0  0  0  0
 25 27  1  0  0  0  0
 27 28  1  0  0  0  0
  1 29  1  0  0  0  0
  1 30  1  0  0  0  0
  1 31  1  0  0  0  0
  3 32  1  0  0  0  0
  3 33  1  0  0  0  0
  4 34  1  0  0  0  0
  4 35  1  0  0  0  0
  9 36  1  0  0  0  0
 11 37  1  0  0  0  0
 11 38  1  0  0  0  0
 17 39  1  0  0  0  0
 18 40  1  0  0  0  0
 18 41  1  0  0  0  0
 22 42  1  0  0  0  0
 22 43  1  0  0  0  0
 22 44  1  0  0  0  0
 23 45  1  0  0  0  0
 24 46  1  0  0  0  0
 26 47  1  0  0  0  0
 28 48  1  0  0  0  0
 28 49  1  0  0  0  0
 28 50  1  0  0  0  0
M  END
> <i_m_stars>
0

> <r_user_dG.exp>
-9.465222

$$$$
18659-1
  -OEChem-05162309453D
 Structure written by MMmdl.
 50 51  0     0  0  0  0  0  0999 V2000
   25.3050   12.1344   28.3533 C   0  0  0  0  0  0  0  0  0  0  0  0
   25.3255   12.3475   29.7610 O   0  0  0  0  0  0  0  0  0  0  0  0
   24.0339   12.4868   30.3516 C   0  0  0  0  0  0  0  0  0  0  0  0
   23.3142   11.1388   30.5400 C   0  0  0  0  0  0  0  0  0  0  0  0
   22.1418   11.3640   31.3238 O   0  0  0  0  0  0  0  0  0  0  0  0
   21.3619   10.2949   31.7280 C   0  0  0  0  0  0  0  0  0  0  0  0
   21.7291    9.0548   31.3049 N   0  0  0  0  0  0  0  0  0  0  0  0
   20.9668    8.0091   31.6649 C   0  0  0  0  0  0  0  0  0  0  0  0
   19.8501    8.1315   32.4812 C   0  0  0  0  0  0  0  0  0  0  0  0
   19.4780    9.3944   32.9057 C   0  0  0  0  0  0  0  0  0  0  0  0
   18.3316    9.4546   33.6892 N   0  0  0  0  0  0  0  0  0  0  0  0
   20.2337   10.5143   32.5251 C   0  0  0  0  0  0  0  0  0  0  0  0
   19.8862   11.8780   32.9066 C   0  0  0  0  0  0  0  0  0  0  0  0
   19.6195   12.9648   33.2019 N   0  0  0  0  0  0  0  0  0  0  0  0
   21.4412    6.8348   31.1127 N   0  0  0  0  0  0  0  0  0  0  0  0
   20.8679    5.6312   31.0118 C   0  0  0  0  0  0  0  0  0  0  0  0
   19.7432    5.3541   31.4246 O   0  0  0  0  0  0  0  0  0  0  0  0
   21.6641    4.5751   30.2539 C   0  0  0  0  0  0  0  0  0  0  0  0
   23.0297    4.2834   30.8691 C   0  0  0  0  0  0  0  0  0  0  0  0
   24.1299    5.1089   30.5871 C   0  0  0  0  0  0  0  0  0  0  0  0
   23.9130    6.2046   29.7697 O   0  0  0  0  0  0  0  0  0  0  0  0
   24.9454    7.1747   29.6060 C   0  0  0  0  0  0  0  0  0  0  0  0
   25.3741    4.7857   31.1456 C   0  0  0  0  0  0  0  0  0  0  0  0
   25.5056    3.6911   32.0008 C   0  0  0  0  0  0  0  0  0  0  0  0
   24.4142    2.8780   32.2954 C   0  0  0  0  0  0  0  0  0  0  0  0
   23.1745    3.1802   31.7177 C   0  0  0  0  0  0  0  0  0  0  0  0
   24.6372    1.8269   33.1598 O   0  0  0  0  0  0  0  0  0  0  0  0
   23.7198    0.7356   33.1705 C   0  0  0  0  0  0  0  0  0  0  0  0
   26.3358   12.0383   27.9814 H   0  0  0  0  0  0  0  0  0  0  0  0
   24.7475   11.2128   28.1302 H   0  0  0  0  0  0  0  0  0  0  0  0
   24.8156   12.9874   27.8605 H   0  0  0  0  0  0  0  0  0  0  0  0
   24.1474   12.9649   31.3357 H   0  0  0  0  0  0  0  0  0  0  0  0
   23.4178   13.1261   29.7022 H   0  0  0  0  0  0  0  0  0  0  0  0
   23.0331   10.7267   29.5596 H   0  0  0  0  0  0  0  0  0  0  0  0
   23.9783   10.4315   31.0583 H   0  0  0  0  0  0  0  0  0  0  0  0
   22.5447    8.9254   30.7410 H   0  0  0  0  0  0  0  0  0  0  0  0
   19.2849    7.2604   32.7779 H   0  0  0  0  0  0  0  0  0  0  0  0
   18.1062   10.3928   33.9518 H   0  0  0  0  0  0  0  0  0  0  0  0
   22.3616    6.8948   30.7263 H   0  0  0  0  0  0  0  0  0  0  0  0
   21.0814    3.6422   30.2418 H   0  0  0  0  0  0  0  0  0  0  0  0
   21.8149    4.9266   29.2226 H   0  0  0  0  0  0  0  0  0  0  0  0
   24.5993    7.9683   28.9275 H   0  0  0  0  0  0  0  0  0  0  0  0
   25.1959    7.6119   30.5838 H   0  0  0  0  0  0  0  0  0  0  0  0
   25.8377    6.6921   29.1806 H   0  0  0  0  0  0  0  0  0  0  0  0
   26.2387    5.3893   30.9119 H   0  0  0  0  0  0  0  0  0  0  0  0
   26.4673    3.4714   32.4404 H   0  0  0  0  0  0  0  0  0  0  0  0
   22.3202    2.5543   31.9297 H   0  0  0  0  0  0  0  0  0  0  0  0
   24.0443   -0.0096   33.9117 H   0  0  0  0  0  0  0  0  0  0  0  0
   22.7169    1.1024   33.4343 H   0  0  0  0  0  0  0  0  0  0  0  0
   23.6901    0.2720   32.1734 H   0  0  0  0  0  0  0  0  0  0  0  0
  1  2  1  0  0  0  0
  2  3  1  0  0  0  0
  3  4  1  0  0  0  0
  4  5  1  0  0  0  0
  5  6  1  0  0  0  0
  6 12  2  0  0  0  0
  6  7  1  0  0  0  0
  7  8  1  0  0  0  0
  8  9  2  0  0  0  0
  8 15  1  0  0  0  0
  9 10  1  0  0  0  0
 10 11  2  0  0  0  0
 10 12  1  0  0  0  0
 12 13  1  0  0  0  0
 13 14  3  0  0  0  0
 15 16  1  0  0  0  0
 16 17  2  0  0  0  0
 16 18  1  0  0  0  0
 18 19  1  0  0  0  0
 19 26  2  0  0  0  0
 19 20  1  0  0  0  0
 20 21  1  0  0  0  0
 20 23  2  0  0  0  0
 21 22  1  0  0  0  0
 23 24  1  0  0  0  0
 24 25  2  0  0  0  0
 25 26  1  0  0  0  0
 25 27  1  0  0  0  0
 27 28  1  0  0  0  0
  1 29  1  0  0  0  0
  1 30  1  0  0  0  0
  1 31  1  0  0  0  0
  3 32  1  0  0  0  0
  3 33  1  0  0  0  0
  4 34  1  0  0  0  0
  4 35  1  0  0  0  0
  7 36  1  0  0  0  0
  9 37  1  0  0  0  0
 11 38  1  0  0  0  0
 15 39  1  0  0  0  0
 18 40  1  0  0  0  0
 18 41  1  0  0  0  0
 22 42  1  0  0  0  0
 22 43  1  0  0  0  0
 22 44  1  0  0  0  0
 23 45  1  0  0  0  0
 24 46  1  0  0  0  0
 26 47  1  0  0  0  0
 28 48  1  0  0  0  0
 28 49  1  0  0  0  0
 28 50  1  0  0  0  0
M  END
> <i_m_stars>
0

> <r_user_dG.exp>
-9.465222

$$$$
18659-1
  -OEChem-05162309453D
 Structure written by MMmdl.
 50 51  0     0  0  0  0  0  0999 V2000
   25.3050   12.1344   28.3533 C   0  0  0  0  0  0  0  0  0  0  0  0
   25.3255   12.3475   29.7610 O   0  0  0  0  0  0  0  0  0  0  0  0
   24.0339   12.4868   30.3516 C   0  0  0  0  0  0  0  0  0  0  0  0
   23.3142   11.1388   30.5400 C   0  0  0  0  0  0  0  0  0  0  0  0
   22.1418   11.3640   31.3238 O   0  0  0  0  0  0  0  0  0  0  0  0
   21.3619   10.2949   31.7280 C   0  0  0  0  0  0  0  0  0  0  0  0
   21.7291    9.0548   31.3049 N   0  0  0  0  0  0  0  0  0  0  0  0
   20.9668    8.0091   31.6649 C   0  0  0  0  0  0  0  0  0  0  0  0
   19.8501    8.1315   32.4812 C   0  0  0  0  0  0  0  0  0  0  0  0
   19.4780    9.3944   32.9057 C   0  0  0  0  0  0  0  0  0  0  0  0
   18.3316    9.4546   33.6892 N   0  0  0  0  0  0  0  0  0  0  0  0
   20.2337   10.5143   32.5251 C   0  0  0  0  0  0  0  0  0  0  0  0
   19.8862   11.8780   32.9066 C   0  0  0  0  0  0  0  0  0  0  0  0
   19.6195   12.9648   33.2019 N   0  0  0  0  0  0  0  0  0  0  0  0
   21.4412    6.8348   31.1127 N   0  0  0  0  0  0  0  0  0  0  0  0
   20.8679    5.6312   31.0118 C   0  0  0  0  0  0  0  0  0  0  0  0
   19.7432    5.3541   31.4246 O   0  0  0  0  0  0  0  0  0  0  0  0
   21.6641    4.5751   30.2539 C   0  0  0  0  0  0  0  0  0  0  0  0
   23.0297    4.2834   30.8691 C   0  0  0  0  0  0  0  0  0  0  0  0
   24.1299    5.1089   30.5871 C   0  0  0  0  0  0  0  0  0  0  0  0
   23.9130    6.2046   29.7697 O   0  0  0  0  0  0  0  0  0  0  0  0
   24.9454    7.1747   29.6060 C   0  0  0  0  0  0  0  0  0  0  0  0
   25.3741    4.7857   31.1456 C   0  0  0  0  0  0  0  0  0  0  0  0
   25.5056    3.6911   32.0008 C   0  0  0  0  0  0  0  0  0  0  0  0
   24.4142    2.8780   32.2954 C   0  0  0  0  0  0  0  0  0  0  0  0
   23.1745    3.1802   31.7177 C   0  0  0  0  0  0  0  0  0  0  0  0
   24.6372    1.8269   33.1598 O   0  0  0  0  0  0  0  0  0  0  0  0
   23.7198    0.7356   33.1705 C   0  0  0  0  0  0  0  0  0  0  0  0
   26.3358   12.0383   27.9814 H   0  0  0  0  0  0  0  0  0  0  0  0
   24.7475   11.2128   28.1302 H   0  0  0  0  0  0  0  0  0  0  0  0
   24.8156   12.9874   27.8605 H   0  0  0  0  0  0  0  0  0  0  0  0
   24.1474   12.9649   31.3357 H   0  0  0  0  0  0  0  0  0  0  0  0
   23.4178   13.1261   29.7022 H   0  0  0  0  0  0  0  0  0  0  0  0
   23.0331   10.7267   29.5596 H   0  0  0  0  0  0  0  0  0  0  0  0
   23.9783   10.4315   31.0583 H   0  0  0  0  0  0  0  0  0  0  0  0
   22.5447    8.9254   30.7410 H   0  0  0  0  0  0  0  0  0  0  0  0
   19.2849    7.2604   32.7779 H   0  0  0  0  0  0  0  0  0  0  0  0
   18.1497   10.4048   33.9422 H   0  0  0  0  0  0  0  0  0  0  0  0
   17.5555    9.0930   33.1725 H   0  0  0  0  0  0  0  0  0  0  0  0
   21.0814    3.6422   30.2418 H   0  0  0  0  0  0  0  0  0  0  0  0
   21.8149    4.9266   29.2226 H   0  0  0  0  0  0  0  0  0  0  0  0
   24.5993    7.9683   28.9275 H   0  0  0  0  0  0  0  0  0  0  0  0
   25.1959    7.6119   30.5838 H   0  0  0  0  0  0  0  0  0  0  0  0
   25.8377    6.6921   29.1806 H   0  0  0  0  0  0  0  0  0  0  0  0
   26.2387    5.3893   30.9119 H   0  0  0  0  0  0  0  0  0  0  0  0
   26.4673    3.4714   32.4404 H   0  0  0  0  0  0  0  0  0  0  0  0
   22.3202    2.5543   31.9297 H   0  0  0  0  0  0  0  0  0  0  0  0
   24.0443   -0.0096   33.9117 H   0  0  0  0  0  0  0  0  0  0  0  0
   22.7169    1.1024   33.4343 H   0  0  0  0  0  0  0  0  0  0  0  0
   23.6901    0.2720   32.1734 H   0  0  0  0  0  0  0  0  0  0  0  0
  1  2  1  0  0  0  0
  2  3  1  0  0  0  0
  3  4  1  0  0  0  0
  4  5  1  0  0  0  0
  5  6  1  0  0  0  0
  6 12  2  0  0  0  0
  6  7  1  0  0  0  0
  7  8  1  0  0  0  0
  8  9  1  0  0  0  0
  8 15  2  0  0  0  0
  9 10  2  0  0  0  0
 10 11  1  0  0  0  0
 10 12  1  0  0  0  0
 12 13  1  0  0  0  0
 13 14  3  0  0  0  0
 15 16  1  0  0  0  0
 16 17  2  0  0  0  0
 16 18  1  0  0  0  0
 18 19  1  0  0  0  0
 19 26  2  0  0  0  0
 19 20  1  0  0  0  0
 20 21  1  0  0  0  0
 20 23  2  0  0  0  0
 21 22  1  0  0  0  0
 23 24  1  0  0  0  0
 24 25  2  0  0  0  0
 25 26  1  0  0  0  0
 25 27  1  0  0  0  0
 27 28  1  0  0  0  0
  1 29  1  0  0  0  0
  1 30  1  0  0  0  0
  1 31  1  0  0  0  0
  3 32  1  0  0  0  0
  3 33  1  0  0  0  0
  4 34  1  0  0  0  0
  4 35  1  0  0  0  0
  7 36  1  0  0  0  0
  9 37  1  0  0  0  0
 11 38  1  0  0  0  0
 11 39  1  0  0  0  0
 18 40  1  0  0  0  0
 18 41  1  0  0  0  0
 22 42  1  0  0  0  0
 22 43  1  0  0  0  0
 22 44  1  0  0  0  0
 23 45  1  0  0  0  0
 24 46  1  0  0  0  0
 26 47  1  0  0  0  0
 28 48  1  0  0  0  0
 28 49  1  0  0  0  0
 28 50  1  0  0  0  0
M  END
> <i_m_stars>
0

> <r_user_dG.exp>
-9.465222

$$$$
18659-1
  -OEChem-05162309453D
 Structure written by MMmdl.
 50 51  0     0  0  0  0  0  0999 V2000
   25.3050   12.1344   28.3533 C   0  0  0  0  0  0  0  0  0  0  0  0
   25.3255   12.3475   29.7610 O   0  0  0  0  0  0  0  0  0  0  0  0
   24.0339   12.4868   30.3516 C   0  0  0  0  0  0  0  0  0  0  0  0
   23.3142   11.1388   30.5400 C   0  0  0  0  0  0  0  0  0  0  0  0
   22.1418   11.3640   31.3238 O   0  0  0  0  0  0  0  0  0  0  0  0
   21.3619   10.2949   31.7280 C   0  0  0  0  0  0  0  0  0  0  0  0
   21.7291    9.0548   31.3049 N   0  0  0  0  0  0  0  0  0  0  0  0
   20.9668    8.0091   31.6649 C   0  0  0  0  0  0  0  0  0  0  0  0
   19.8501    8.1315   32.4812 C   0  0  0  0  0  0  0  0  0  0  0  0
   19.4780    9.3944   32.9057 C   0  0  0  0  0  0  0  0  0  0  0  0
   18.3316    9.4546   33.6892 N   0  0  0  0  0  0  0  0  0  0  0  0
   20.2337   10.5143   32.5251 C   0  0  0  0  0  0  0  0  0  0  0  0
   19.8862   11.8780   32.9066 C   0  0  0  0  0  0  0  0  0  0  0  0
   19.6195   12.9648   33.2019 N   0  0  0  0  0  0  0  0  0  0  0  0
   21.4412    6.8348   31.1127 N   0  0  0  0  0  0  0  0  0  0  0  0
   20.8679    5.6312   31.0118 C   0  0  0  0  0  0  0  0  0  0  0  0
   19.7432    5.3541   31.4246 O   0  0  0  0  0  0  0  0  0  0  0  0
   21.6641    4.5751   30.2539 C   0  0  0  0  0  0  0  0  0  0  0  0
   23.0297    4.2834   30.8691 C   0  0  0  0  0  0  0  0  0  0  0  0
   24.1299    5.1089   30.5871 C   0  0  0  0  0  0  0  0  0  0  0  0
   23.9130    6.2046   29.7697 O   0  0  0  0  0  0  0  0  0  0  0  0
   24.9454    7.1747   29.6060 C   0  0  0  0  0  0  0  0  0  0  0  0
   25.3741    4.7857   31.1456 C   0  0  0  0  0  0  0  0  0  0  0  0
   25.5056    3.6911   32.0008 C   0  0  0  0  0  0  0  0  0  0  0  0
   24.4142    2.8780   32.2954 C   0  0  0  0  0  0  0  0  0  0  0  0
   23.1745    3.1802   31.7177 C   0  0  0  0  0  0  0  0  0  0  0  0
   24.6372    1.8269   33.1598 O   0  0  0  0  0  0  0  0  0  0  0  0
   23.7198    0.7356   33.1705 C   0  0  0  0  0  0  0  0  0  0  0  0
   26.3358   12.0383   27.9814 H   0  0  0  0  0  0  0  0  0  0  0  0
   24.7475   11.2128   28.1302 H   0  0  0  0  0  0  0  0  0  0  0  0
   24.8156   12.9874   27.8605 H   0  0  0  0  0  0  0  0  0  0  0  0
   24.1474   12.9649   31.3357 H   0  0  0  0  0  0  0  0  0  0  0  0
   23.4178   13.1261   29.7022 H   0  0  0  0  0  0  0  0  0  0  0  0
   23.0331   10.7267   29.5596 H   0  0  0  0  0  0  0  0  0  0  0  0
   23.9783   10.4315   31.0583 H   0  0  0  0  0  0  0  0  0  0  0  0
   22.5447    8.9254   30.7410 H   0  0  0  0  0  0  0  0  0  0  0  0
   19.2849    7.2604   32.7779 H   0  0  0  0  0  0  0  0  0  0  0  0
   18.1062   10.3928   33.9518 H   0  0  0  0  0  0  0  0  0  0  0  0
   19.5537    4.4416   31.2404 H   0  0  0  0  0  0  0  0  0  0  0  0
   21.0814    3.6422   30.2418 H   0  0  0  0  0  0  0  0  0  0  0  0
   21.8149    4.9266   29.2226 H   0  0  0  0  0  0  0  0  0  0  0  0
   24.5993    7.9683   28.9275 H   0  0  0  0  0  0  0  0  0  0  0  0
   25.1959    7.6119   30.5838 H   0  0  0  0  0  0  0  0  0  0  0  0
   25.8377    6.6921   29.1806 H   0  0  0  0  0  0  0  0  0  0  0  0
   26.2387    5.3893   30.9119 H   0  0  0  0  0  0  0  0  0  0  0  0
   26.4673    3.4714   32.4404 H   0  0  0  0  0  0  0  0  0  0  0  0
   22.3202    2.5543   31.9297 H   0  0  0  0  0  0  0  0  0  0  0  0
   24.0443   -0.0096   33.9117 H   0  0  0  0  0  0  0  0  0  0  0  0
   22.7169    1.1024   33.4343 H   0  0  0  0  0  0  0  0  0  0  0  0
   23.6901    0.2720   32.1734 H   0  0  0  0  0  0  0  0  0  0  0  0
  1  2  1  0  0  0  0
  2  3  1  0  0  0  0
  3  4  1  0  0  0  0
  4  5  1  0  0  0  0
  5  6  1  0  0  0  0
  6 12  2  0  0  0  0
  6  7  1  0  0  0  0
  7  8  1  0  0  0  0
  8  9  2  0  0  0  0
  8 15  1  0  0  0  0
  9 10  1  0  0  0  0
 10 11  2  0  0  0  0
 10 12  1  0  0  0  0
 12 13  1  0  0  0  0
 13 14  3  0  0  0  0
 15 16  2  0  0  0  0
 16 17  1  0  0  0  0
 16 18  1  0  0  0  0
 18 19  1  0  0  0  0
 19 26  2  0  0  0  0
 19 20  1  0  0  0  0
 20 21  1  0  0  0  0
 20 23  2  0  0  0  0
 21 22  1  0  0  0  0
 23 24  1  0  0  0  0
 24 25  2  0  0  0  0
 25 26  1  0  0  0  0
 25 27  1  0  0  0  0
 27 28  1  0  0  0  0
  1 29  1  0  0  0  0
  1 30  1  0  0  0  0
  1 31  1  0  0  0  0
  3 32  1  0  0  0  0
  3 33  1  0  0  0  0
  4 34  1  0  0  0  0
  4 35  1  0  0  0  0
  7 36  1  0  0  0  0
  9 37  1  0  0  0  0
 11 38  1  0  0  0  0
 17 39  1  0  0  0  0
 18 40  1  0  0  0  0
 18 41  1  0  0  0  0
 22 42  1  0  0  0  0
 22 43  1  0  0  0  0
 22 44  1  0  0  0  0
 23 45  1  0  0  0  0
 24 46  1  0  0  0  0
 26 47  1  0  0  0  0
 28 48  1  0  0  0  0
 28 49  1  0  0  0  0
 28 50  1  0  0  0  0
M  END
> <i_m_stars>
0

> <r_user_dG.exp>
-9.465222

$$$$
18659-1
  -OEChem-05162309453D
 Structure written by MMmdl.
 50 51  0     1  0  0  0  0  0999 V2000
   25.3050   12.1344   28.3533 C   0  0  0  0  0  0  0  0  0  0  0  0
   25.3255   12.3475   29.7610 O   0  0  0  0  0  0  0  0  0  0  0  0
   24.0339   12.4868   30.3516 C   0  0  0  0  0  0  0  0  0  0  0  0
   23.3142   11.1388   30.5400 C   0  0  0  0  0  0  0  0  0  0  0  0
   22.1418   11.3640   31.3238 O   0  0  0  0  0  0  0  0  0  0  0  0
   21.3619   10.2949   31.7280 C   0  0  0  0  0  0  0  0  0  0  0  0
   21.7291    9.0548   31.3049 N   0  0  0  0  0  0  0  0  0  0  0  0
   20.9668    8.0091   31.6649 C   0  0  0  0  0  0  0  0  0  0  0  0
   19.8501    8.1315   32.4812 C   0  0  0  0  0  0  0  0  0  0  0  0
   19.4780    9.3944   32.9057 C   0  0  0  0  0  0  0  0  0  0  0  0
   18.3316    9.4546   33.6892 N   0  0  0  0  0  0  0  0  0  0  0  0
   20.2337   10.5143   32.5251 C   0  0  3  0  0  0  0  0  0  0  0  0
   19.8862   11.8780   32.9066 C   0  0  0  0  0  0  0  0  0  0  0  0
   19.6195   12.9648   33.2019 N   0  0  0  0  0  0  0  0  0  0  0  0
   21.4412    6.8348   31.1127 N   0  0  0  0  0  0  0  0  0  0  0  0
   20.8679    5.6312   31.0118 C   0  0  0  0  0  0  0  0  0  0  0  0
   19.7432    5.3541   31.4246 O   0  0  0  0  0  0  0  0  0  0  0  0
   21.6641    4.5751   30.2539 C   0  0  0  0  0  0  0  0  0  0  0  0
   23.0297    4.2834   30.8691 C   0  0  0  0  0  0  0  0  0  0  0  0
   24.1299    5.1089   30.5871 C   0  0  0  0  0  0  0  0  0  0  0  0
   23.9130    6.2046   29.7697 O   0  0  0  0  0  0  0  0  0  0  0  0
   24.9454    7.1747   29.6060 C   0  0  0  0  0  0  0  0  0  0  0  0
   25.3741    4.7857   31.1456 C   0  0  0  0  0  0  0  0  0  0  0  0
   25.5056    3.6911   32.0008 C   0  0  0  0  0  0  0  0  0  0  0  0
   24.4142    2.8780   32.2954 C   0  0  0  0  0  0  0  0  0  0  0  0
   23.1745    3.1802   31.7177 C   0  0  0  0  0  0  0  0  0  0  0  0
   24.6372    1.8269   33.1598 O   0  0  0  0  0  0  0  0  0  0  0  0
   23.7198    0.7356   33.1705 C   0  0  0  0  0  0  0  0  0  0  0  0
   26.3358   12.0383   27.9814 H   0  0  0  0  0  0  0  0  0  0  0  0
   24.7475   11.2128   28.1302 H   0  0  0  0  0  0  0  0  0  0  0  0
   24.8156   12.9874   27.8605 H   0  0  0  0  0  0  0  0  0  0  0  0
   24.1474   12.9649   31.3357 H   0  0  0  0  0  0  0  0  0  0  0  0
   23.4178   13.1261   29.7022 H   0  0  0  0  0  0  0  0  0  0  0  0
   23.0331   10.7267   29.5596 H   0  0  0  0  0  0  0  0  0  0  0  0
   23.9783   10.4315   31.0583 H   0  0  0  0  0  0  0  0  0  0  0  0
   18.9969    7.7098   31.9296 H   0  0  0  0  0  0  0  0  0  0  0  0
   20.0386    7.5286   33.3818 H   0  0  0  0  0  0  0  0  0  0  0  0
   18.1062   10.3928   33.9518 H   0  0  0  0  0  0  0  0  0  0  0  0
   20.8488   10.4129   33.4314 H   0  0  0  0  0  0  0  0  0  0  0  0
   21.0814    3.6422   30.2418 H   0  0  0  0  0  0  0  0  0  0  0  0
   21.8149    4.9266   29.2226 H   0  0  0  0  0  0  0  0  0  0  0  0
   24.5993    7.9683   28.9275 H   0  0  0  0  0  0  0  0  0  0  0  0
   25.1959    7.6119   30.5838 H   0  0  0  0  0  0  0  0  0  0  0  0
   25.8377    6.6921   29.1806 H   0  0  0  0  0  0  0  0  0  0  0  0
   26.2387    5.3893   30.9119 H   0  0  0  0  0  0  0  0  0  0  0  0
   26.4673    3.4714   32.4404 H   0  0  0  0  0  0  0  0  0  0  0  0
   22.3202    2.5543   31.9297 H   0  0  0  0  0  0  0  0  0  0  0  0
   24.0443   -0.0096   33.9117 H   0  0  0  0  0  0  0  0  0  0  0  0
   22.7169    1.1024   33.4343 H   0  0  0  0  0  0  0  0  0  0  0  0
   23.6901    0.2720   32.1734 H   0  0  0  0  0  0  0  0  0  0  0  0
  1  2  1  0  0  0  0
  2  3  1  0  0  0  0
  3  4  1  0  0  0  0
  4  5  1  0  0  0  0
  5  6  1  0  0  0  0
  6 12  1  0  0  0  0
  6  7  2  0  0  0  0
  7  8  1  0  0  0  0
  8  9  1  0  0  0  0
  8 15  2  0  0  0  0
  9 10  1  0  0  0  0
 10 11  2  0  0  0  0
 10 12  1  0  0  0  0
 12 13  1  0  0  0  0
 13 14  3  0  0  0  0
 15 16  1  0  0  0  0
 16 17  2  0  0  0  0
 16 18  1  0  0  0  0
 18 19  1  0  0  0  0
 19 26  2  0  0  0  0
 19 20  1  0  0  0  0
 20 21  1  0  0  0  0
 20 23  2  0  0  0  0
 21 22  1  0  0  0  0
 23 24  1  0  0  0  0
 24 25  2  0  0  0  0
 25 26  1  0  0  0  0
 25 27  1  0  0  0  0
 27 28  1  0  0  0  0
  1 29  1  0  0  0  0
  1 30  1  0  0  0  0
  1 31  1  0  0  0  0
  3 32  1  0  0  0  0
  3 33  1  0  0  0  0
  4 34  1  0  0  0  0
  4 35  1  0  0  0  0
  9 36  1  0  0  0  0
  9 37  1  0  0  0  0
 11 38  1  0  0  0  0
 12 39  1  0  0  0  0
 18 40  1  0  0  0  0
 18 41  1  0  0  0  0
 22 42  1  0  0  0  0
 22 43  1  0  0  0  0
 22 44  1  0  0  0  0
 23 45  1  0  0  0  0
 24 46  1  0  0  0  0
 26 47  1  0  0  0  0
 28 48  1  0  0  0  0
 28 49  1  0  0  0  0
 28 50  1  0  0  0  0
M  END
> <i_m_stars>
0

> <r_user_dG.exp>
-9.465222

$$$$
18659-1
  -OEChem-05162309453D
 Structure written by MMmdl.
 50 51  0     1  0  0  0  0  0999 V2000
   25.3050   12.1344   28.3533 C   0  0  0  0  0  0  0  0  0  0  0  0
   25.3255   12.3475   29.7610 O   0  0  0  0  0  0  0  0  0  0  0  0
   24.0339   12.4868   30.3516 C   0  0  0  0  0  0  0  0  0  0  0  0
   23.3142   11.1388   30.5400 C   0  0  0  0  0  0  0  0  0  0  0  0
   22.1418   11.3640   31.3238 O   0  0  0  0  0  0  0  0  0  0  0  0
   21.3619   10.2949   31.7280 C   0  0  0  0  0  0  0  0  0  0  0  0
   21.7291    9.0548   31.3049 N   0  0  0  0  0  0  0  0  0  0  0  0
   20.9668    8.0091   31.6649 C   0  0  0  0  0  0  0  0  0  0  0  0
   19.8501    8.1315   32.4812 C   0  0  0  0  0  0  0  0  0  0  0  0
   19.4780    9.3944   32.9057 C   0  0  0  0  0  0  0  0  0  0  0  0
   18.3316    9.4546   33.6892 N   0  0  0  0  0  0  0  0  0  0  0  0
   20.2337   10.5143   32.5251 C   0  0  3  0  0  0  0  0  0  0  0  0
   19.8862   11.8780   32.9066 C   0  0  0  0  0  0  0  0  0  0  0  0
   19.6195   12.9648   33.2019 N   0  0  0  0  0  0  0  0  0  0  0  0
   21.4412    6.8348   31.1127 N   0  0  0  0  0  0  0  0  0  0  0  0
   20.8679    5.6312   31.0118 C   0  0  0  0  0  0  0  0  0  0  0  0
   19.7432    5.3541   31.4246 O   0  0  0  0  0  0  0  0  0  0  0  0
   21.6641    4.5751   30.2539 C   0  0  0  0  0  0  0  0  0  0  0  0
   23.0297    4.2834   30.8691 C   0  0  0  0  0  0  0  0  0  0  0  0
   24.1299    5.1089   30.5871 C   0  0  0  0  0  0  0  0  0  0  0  0
   23.9130    6.2046   29.7697 O   0  0  0  0  0  0  0  0  0  0  0  0
   24.9454    7.1747   29.6060 C   0  0  0  0  0  0  0  0  0  0  0  0
   25.3741    4.7857   31.1456 C   0  0  0  0  0  0  0  0  0  0  0  0
   25.5056    3.6911   32.0008 C   0  0  0  0  0  0  0  0  0  0  0  0
   24.4142    2.8780   32.2954 C   0  0  0  0  0  0  0  0  0  0  0  0
   23.1745    3.1802   31.7177 C   0  0  0  0  0  0  0  0  0  0  0  0
   24.6372    1.8269   33.1598 O   0  0  0  0  0  0  0  0  0  0  0  0
   23.7198    0.7356   33.1705 C   0  0  0  0  0  0  0  0  0  0  0  0
   26.3358   12.0383   27.9814 H   0  0  0  0  0  0  0  0  0  0  0  0
   24.7475   11.2128   28.1302 H   0  0  0  0  0  0  0  0  0  0  0  0
   24.8156   12.9874   27.8605 H   0  0  0  0  0  0  0  0  0  0  0  0
   24.1474   12.9649   31.3357 H   0  0  0  0  0  0  0  0  0  0  0  0
   23.4178   13.1261   29.7022 H   0  0  0  0  0  0  0  0  0  0  0  0
   23.0331   10.7267   29.5596 H   0  0  0  0  0  0  0  0  0  0  0  0
   23.9783   10.4315   31.0583 H   0  0  0  0  0  0  0  0  0  0  0  0
   19.2849    7.2604   32.7779 H   0  0  0  0  0  0  0  0  0  0  0  0
   18.1062   10.3928   33.9518 H   0  0  0  0  0  0  0  0  0  0  0  0
   20.8488   10.4129   33.4314 H   0  0  0  0  0  0  0  0  0  0  0  0
   22.3616    6.8948   30.7263 H   0  0  0  0  0  0  0  0  0  0  0  0
   21.0814    3.6422   30.2418 H   0  0  0  0  0  0  0  0  0  0  0  0
   21.8149    4.9266   29.2226 H   0  0  0  0  0  0  0  0  0  0  0  0
   24.5993    7.9683   28.9275 H   0  0  0  0  0  0  0  0  0  0  0  0
   25.1959    7.6119   30.5838 H   0  0  0  0  0  0  0  0  0  0  0  0
   25.8377    6.6921   29.1806 H   0  0  0  0  0  0  0  0  0  0  0  0
   26.2387    5.3893   30.9119 H   0  0  0  0  0  0  0  0  0  0  0  0
   26.4673    3.4714   32.4404 H   0  0  0  0  0  0  0  0  0  0  0  0
   22.3202    2.5543   31.9297 H   0  0  0  0  0  0  0  0  0  0  0  0
   24.0443   -0.0096   33.9117 H   0  0  0  0  0  0  0  0  0  0  0  0
   22.7169    1.1024   33.4343 H   0  0  0  0  0  0  0  0  0  0  0  0
   23.6901    0.2720   32.1734 H   0  0  0  0  0  0  0  0  0  0  0  0
  1  2  1  0  0  0  0
  2  3  1  0  0  0  0
  3  4  1  0  0  0  0
  4  5  1  0  0  0  0
  5  6  1  0  0  0  0
  6 12  1  0  0  0  0
  6  7  2  0  0  0  0
  7  8  1  0  0  0  0
  8  9  2  0  0  0  0
  8 15  1  0  0  0  0
  9 10  1  0  0  0  0
 10 11  2  0  0  0  0
 10 12  1  0  0  0  0
 12 13  1  0  0  0  0
 13 14  3  0  0  0  0
 15 16  1  0  0  0  0
 16 17  2  0  0  0  0
 16 18  1  0  0  0  0
 18 19  1  0  0  0  0
 19 26  2  0  0  0  0
 19 20  1  0  0  0  0
 20 21  1  0  0  0  0
 20 23  2  0  0  0  0
 21 22  1  0  0  0  0
 23 24  1  0  0  0  0
 24 25  2  0  0  0  0
 25 26  1  0  0  0  0
 25 27  1  0  0  0  0
 27 28  1  0  0  0  0
  1 29  1  0  0  0  0
  1 30  1  0  0  0  0
  1 31  1  0  0  0  0
  3 32  1  0  0  0  0
  3 33  1  0  0  0  0
  4 34  1  0  0  0  0
  4 35  1  0  0  0  0
  9 36  1  0  0  0  0
 11 37  1  0  0  0  0
 12 38  1  0  0  0  0
 15 39  1  0  0  0  0
 18 40  1  0  0  0  0
 18 41  1  0  0  0  0
 22 42  1  0  0  0  0
 22 43  1  0  0  0  0
 22 44  1  0  0  0  0
 23 45  1  0  0  0  0
 24 46  1  0  0  0  0
 26 47  1  0  0  0  0
 28 48  1  0  0  0  0
 28 49  1  0  0  0  0
 28 50  1  0  0  0  0
M  END
> <i_m_stars>
0

> <r_user_dG.exp>
-9.465222

$$$$
18659-1
  -OEChem-05162309453D
 Structure written by MMmdl.
 50 51  0     0  0  0  0  0  0999 V2000
   25.3050   12.1344   28.3533 C   0  0  0  0  0  0  0  0  0  0  0  0
   25.3255   12.3475   29.7610 O   0  0  0  0  0  0  0  0  0  0  0  0
   24.0339   12.4868   30.3516 C   0  0  0  0  0  0  0  0  0  0  0  0
   23.3142   11.1388   30.5400 C   0  0  0  0  0  0  0  0  0  0  0  0
   22.1418   11.3640   31.3238 O   0  0  0  0  0  0  0  0  0  0  0  0
   21.3619   10.2949   31.7280 C   0  0  0  0  0  0  0  0  0  0  0  0
   21.7291    9.0548   31.3049 N   0  0  0  0  0  0  0  0  0  0  0  0
   20.9668    8.0091   31.6649 C   0  0  0  0  0  0  0  0  0  0  0  0
   19.8501    8.1315   32.4812 C   0  0  0  0  0  0  0  0  0  0  0  0
   19.4780    9.3944   32.9057 C   0  0  0  0  0  0  0  0  0  0  0  0
   18.3316    9.4546   33.6892 N   0  0  0  0  0  0  0  0  0  0  0  0
   20.2337   10.5143   32.5251 C   0  0  0  0  0  0  0  0  0  0  0  0
   19.8862   11.8780   32.9066 C   0  0  0  0  0  0  0  0  0  0  0  0
   19.6195   12.9648   33.2019 N   0  0  0  0  0  0  0  0  0  0  0  0
   21.4412    6.8348   31.1127 N   0  0  0  0  0  0  0  0  0  0  0  0
   20.8679    5.6312   31.0118 C   0  0  0  0  0  0  0  0  0  0  0  0
   19.7432    5.3541   31.4246 O   0  0  0  0  0  0  0  0  0  0  0  0
   21.6641    4.5751   30.2539 C   0  0  0  0  0  0  0  0  0  0  0  0
   23.0297    4.2834   30.8691 C   0  0  0  0  0  0  0  0  0  0  0  0
   24.1299    5.1089   30.5871 C   0  0  0  0  0  0  0  0  0  0  0  0
   23.9130    6.2046   29.7697 O   0  0  0  0  0  0  0  0  0  0  0  0
   24.9454    7.1747   29.6060 C   0  0  0  0  0  0  0  0  0  0  0  0
   25.3741    4.7857   31.1456 C   0  0  0  0  0  0  0  0  0  0  0  0
   25.5056    3.6911   32.0008 C   0  0  0  0  0  0  0  0  0  0  0  0
   24.4142    2.8780   32.2954 C   0  0  0  0  0  0  0  0  0  0  0  0
   23.1745    3.1802   31.7177 C   0  0  0  0  0  0  0  0  0  0  0  0
   24.6372    1.8269   33.1598 O   0  0  0  0  0  0  0  0  0  0  0  0
   23.7198    0.7356   33.1705 C   0  0  0  0  0  0  0  0  0  0  0  0
   26.3358   12.0383   27.9814 H   0  0  0  0  0  0  0  0  0  0  0  0
   24.7475   11.2128   28.1302 H   0  0  0  0  0  0  0  0  0  0  0  0
   24.8156   12.9874   27.8605 H   0  0  0  0  0  0  0  0  0  0  0  0
   24.1474   12.9649   31.3357 H   0  0  0  0  0  0  0  0  0  0  0  0
   23.4178   13.1261   29.7022 H   0  0  0  0  0  0  0  0  0  0  0  0
   23.0331   10.7267   29.5596 H   0  0  0  0  0  0  0  0  0  0  0  0
   23.9783   10.4315   31.0583 H   0  0  0  0  0  0  0  0  0  0  0  0
   18.9969    7.7098   31.9296 H   0  0  0  0  0  0  0  0  0  0  0  0
   20.0386    7.5286   33.3818 H   0  0  0  0  0  0  0  0  0  0  0  0
   18.1062   10.3928   33.9518 H   0  0  0  0  0  0  0  0  0  0  0  0
   22.3616    6.8948   30.7263 H   0  0  0  0  0  0  0  0  0  0  0  0
   21.0814    3.6422   30.2418 H   0  0  0  0  0  0  0  0  0  0  0  0
   21.8149    4.9266   29.2226 H   0  0  0  0  0  0  0  0  0  0  0  0
   24.5993    7.9683   28.9275 H   0  0  0  0  0  0  0  0  0  0  0  0
   25.1959    7.6119   30.5838 H   0  0  0  0  0  0  0  0  0  0  0  0
   25.8377    6.6921   29.1806 H   0  0  0  0  0  0  0  0  0  0  0  0
   26.2387    5.3893   30.9119 H   0  0  0  0  0  0  0  0  0  0  0  0
   26.4673    3.4714   32.4404 H   0  0  0  0  0  0  0  0  0  0  0  0
   22.3202    2.5543   31.9297 H   0  0  0  0  0  0  0  0  0  0  0  0
   24.0443   -0.0096   33.9117 H   0  0  0  0  0  0  0  0  0  0  0  0
   22.7169    1.1024   33.4343 H   0  0  0  0  0  0  0  0  0  0  0  0
   23.6901    0.2720   32.1734 H   0  0  0  0  0  0  0  0  0  0  0  0
  1  2  1  0  0  0  0
  2  3  1  0  0  0  0
  3  4  1  0  0  0  0
  4  5  1  0  0  0  0
  5  6  1  0  0  0  0
  6 12  2  0  0  0  0
  6  7  1  0  0  0  0
  7  8  2  0  0  0  0
  8  9  1  0  0  0  0
  8 15  1  0  0  0  0
  9 10  1  0  0  0  0
 10 11  2  0  0  0  0
 10 12  1  0  0  0  0
 12 13  1  0  0  0  0
 13 14  3  0  0  0  0
 15 16  1  0  0  0  0
 16 17  2  0  0  0  0
 16 18  1  0  0  0  0
 18 19  1  0  0  0  0
 19 26  2  0  0  0  0
 19 20  1  0  0  0  0
 20 21  1  0  0  0  0
 20 23  2  0  0  0  0
 21 22  1  0  0  0  0
 23 24  1  0  0  0  0
 24 25  2  0  0  0  0
 25 26  1  0  0  0  0
 25 27  1  0  0  0  0
 27 28  1  0  0  0  0
  1 29  1  0  0  0  0
  1 30  1  0  0  0  0
  1 31  1  0  0  0  0
  3 32  1  0  0  0  0
  3 33  1  0  0  0  0
  4 34  1  0  0  0  0
  4 35  1  0  0  0  0
  9 36  1  0  0  0  0
  9 37  1  0  0  0  0
 11 38  1  0  0  0  0
 15 39  1  0  0  0  0
 18 40  1  0  0  0  0
 18 41  1  0  0  0  0
 22 42  1  0  0  0  0
 22 43  1  0  0  0  0
 22 44  1  0  0  0  0
 23 45  1  0  0  0  0
 24 46  1  0  0  0  0
 26 47  1  0  0  0  0
 28 48  1  0  0  0  0
 28 49  1  0  0  0  0
 28 50  1  0  0  0  0
M  END
> <i_m_stars>
0

> <r_user_dG.exp>
-9.465222

$$$$
18659-1
  -OEChem-05162309453D
 Structure written by MMmdl.
 50 51  0     1  0  0  0  0  0999 V2000
   25.3050   12.1344   28.3533 C   0  0  0  0  0  0  0  0  0  0  0  0
   25.3255   12.3475   29.7610 O   0  0  0  0  0  0  0  0  0  0  0  0
   24.0339   12.4868   30.3516 C   0  0  0  0  0  0  0  0  0  0  0  0
   23.3142   11.1388   30.5400 C   0  0  0  0  0  0  0  0  0  0  0  0
   22.1418   11.3640   31.3238 O   0  0  0  0  0  0  0  0  0  0  0  0
   21.3619   10.2949   31.7280 C   0  0  0  0  0  0  0  0  0  0  0  0
   21.7291    9.0548   31.3049 N   0  0  0  0  0  0  0  0  0  0  0  0
   20.9668    8.0091   31.6649 C   0  0  0  0  0  0  0  0  0  0  0  0
   19.8501    8.1315   32.4812 C   0  0  0  0  0  0  0  0  0  0  0  0
   19.4780    9.3944   32.9057 C   0  0  0  0  0  0  0  0  0  0  0  0
   18.3316    9.4546   33.6892 N   0  0  0  0  0  0  0  0  0  0  0  0
   20.2337   10.5143   32.5251 C   0  0  3  0  0  0  0  0  0  0  0  0
   19.8862   11.8780   32.9066 C   0  0  0  0  0  0  0  0  0  0  0  0
   19.6195   12.9648   33.2019 N   0  0  0  0  0  0  0  0  0  0  0  0
   21.4412    6.8348   31.1127 N   0  0  0  0  0  0  0  0  0  0  0  0
   20.8679    5.6312   31.0118 C   0  0  0  0  0  0  0  0  0  0  0  0
   19.7432    5.3541   31.4246 O   0  0  0  0  0  0  0  0  0  0  0  0
   21.6641    4.5751   30.2539 C   0  0  0  0  0  0  0  0  0  0  0  0
   23.0297    4.2834   30.8691 C   0  0  0  0  0  0  0  0  0  0  0  0
   24.1299    5.1089   30.5871 C   0  0  0  0  0  0  0  0  0  0  0  0
   23.9130    6.2046   29.7697 O   0  0  0  0  0  0  0  0  0  0  0  0
   24.9454    7.1747   29.6060 C   0  0  0  0  0  0  0  0  0  0  0  0
   25.3741    4.7857   31.1456 C   0  0  0  0  0  0  0  0  0  0  0  0
   25.5056    3.6911   32.0008 C   0  0  0  0  0  0  0  0  0  0  0  0
   24.4142    2.8780   32.2954 C   0  0  0  0  0  0  0  0  0  0  0  0
   23.1745    3.1802   31.7177 C   0  0  0  0  0  0  0  0  0  0  0  0
   24.6372    1.8269   33.1598 O   0  0  0  0  0  0  0  0  0  0  0  0
   23.7198    0.7356   33.1705 C   0  0  0  0  0  0  0  0  0  0  0  0
   26.3358   12.0383   27.9814 H   0  0  0  0  0  0  0  0  0  0  0  0
   24.7475   11.2128   28.1302 H   0  0  0  0  0  0  0  0  0  0  0  0
   24.8156   12.9874   27.8605 H   0  0  0  0  0  0  0  0  0  0  0  0
   24.1474   12.9649   31.3357 H   0  0  0  0  0  0  0  0  0  0  0  0
   23.4178   13.1261   29.7022 H   0  0  0  0  0  0  0  0  0  0  0  0
   23.0331   10.7267   29.5596 H   0  0  0  0  0  0  0  0  0  0  0  0
   23.9783   10.4315   31.0583 H   0  0  0  0  0  0  0  0  0  0  0  0
   19.2849    7.2604   32.7779 H   0  0  0  0  0  0  0  0  0  0  0  0
   18.1497   10.4048   33.9422 H   0  0  0  0  0  0  0  0  0  0  0  0
   17.5555    9.0930   33.1725 H   0  0  0  0  0  0  0  0  0  0  0  0
   20.8488   10.4129   33.4314 H   0  0  0  0  0  0  0  0  0  0  0  0
   21.0814    3.6422   30.2418 H   0  0  0  0  0  0  0  0  0  0  0  0
   21.8149    4.9266   29.2226 H   0  0  0  0  0  0  0  0  0  0  0  0
   24.5993    7.9683   28.9275 H   0  0  0  0  0  0  0  0  0  0  0  0
   25.1959    7.6119   30.5838 H   0  0  0  0  0  0  0  0  0  0  0  0
   25.8377    6.6921   29.1806 H   0  0  0  0  0  0  0  0  0  0  0  0
   26.2387    5.3893   30.9119 H   0  0  0  0  0  0  0  0  0  0  0  0
   26.4673    3.4714   32.4404 H   0  0  0  0  0  0  0  0  0  0  0  0
   22.3202    2.5543   31.9297 H   0  0  0  0  0  0  0  0  0  0  0  0
   24.0443   -0.0096   33.9117 H   0  0  0  0  0  0  0  0  0  0  0  0
   22.7169    1.1024   33.4343 H   0  0  0  0  0  0  0  0  0  0  0  0
   23.6901    0.2720   32.1734 H   0  0  0  0  0  0  0  0  0  0  0  0
  1  2  1  0  0  0  0
  2  3  1  0  0  0  0
  3  4  1  0  0  0  0
  4  5  1  0  0  0  0
  5  6  1  0  0  0  0
  6 12  1  0  0  0  0
  6  7  2  0  0  0  0
  7  8  1  0  0  0  0
  8  9  1  0  0  0  0
  8 15  2  0  0  0  0
  9 10  2  0  0  0  0
 10 11  1  0  0  0  0
 10 12  1  0  0  0  0
 12 13  1  0  0  0  0
 13 14  3  0  0  0  0
 15 16  1  0  0  0  0
 16 17  2  0  0  0  0
 16 18  1  0  0  0  0
 18 19  1  0  0  0  0
 19 26  2  0  0  0  0
 19 20  1  0  0  0  0
 20 21  1  0  0  0  0
 20 23  2  0  0  0  0
 21 22  1  0  0  0  0
 23 24  1  0  0  0  0
 24 25  2  0  0  0  0
 25 26  1  0  0  0  0
 25 27  1  0  0  0  0
 27 28  1  0  0  0  0
  1 29  1  0  0  0  0
  1 30  1  0  0  0  0
  1 31  1  0  0  0  0
  3 32  1  0  0  0  0
  3 33  1  0  0  0  0
  4 34  1  0  0  0  0
  4 35  1  0  0  0  0
  9 36  1  0  0  0  0
 11 37  1  0  0  0  0
 11 38  1  0  0  0  0
 12 39  1  0  0  0  0
 18 40  1  0  0  0  0
 18 41  1  0  0  0  0
 22 42  1  0  0  0  0
 22 43  1  0  0  0  0
 22 44  1  0  0  0  0
 23 45  1  0  0  0  0
 24 46  1  0  0  0  0
 26 47  1  0  0  0  0
 28 48  1  0  0  0  0
 28 49  1  0  0  0  0
 28 50  1  0  0  0  0
M  END
> <i_m_stars>
0

> <r_user_dG.exp>
-9.465222

$$$$
18659-1
  -OEChem-05162309453D
 Structure written by MMmdl.
 50 51  0     0  0  0  0  0  0999 V2000
   25.3050   12.1344   28.3533 C   0  0  0  0  0  0  0  0  0  0  0  0
   25.3255   12.3475   29.7610 O   0  0  0  0  0  0  0  0  0  0  0  0
   24.0339   12.4868   30.3516 C   0  0  0  0  0  0  0  0  0  0  0  0
   23.3142   11.1388   30.5400 C   0  0  0  0  0  0  0  0  0  0  0  0
   22.1418   11.3640   31.3238 O   0  0  0  0  0  0  0  0  0  0  0  0
   21.3619   10.2949   31.7280 C   0  0  0  0  0  0  0  0  0  0  0  0
   21.7291    9.0548   31.3049 N   0  0  0  0  0  0  0  0  0  0  0  0
   20.9668    8.0091   31.6649 C   0  0  0  0  0  0  0  0  0  0  0  0
   19.8501    8.1315   32.4812 C   0  0  0  0  0  0  0  0  0  0  0  0
   19.4780    9.3944   32.9057 C   0  0  0  0  0  0  0  0  0  0  0  0
   18.3316    9.4546   33.6892 N   0  0  0  0  0  0  0  0  0  0  0  0
   20.2337   10.5143   32.5251 C   0  0  0  0  0  0  0  0  0  0  0  0
   19.8862   11.8780   32.9066 C   0  0  0  0  0  0  0  0  0  0  0  0
   19.6195   12.9648   33.2019 N   0  0  0  0  0  0  0  0  0  0  0  0
   21.4412    6.8348   31.1127 N   0  0  0  0  0  0  0  0  0  0  0  0
   20.8679    5.6312   31.0118 C   0  0  0  0  0  0  0  0  0  0  0  0
   19.7432    5.3541   31.4246 O   0  0  0  0  0  0  0  0  0  0  0  0
   21.6641    4.5751   30.2539 C   0  0  0  0  0  0  0  0  0  0  0  0
   23.0297    4.2834   30.8691 C   0  0  0  0  0  0  0  0  0  0  0  0
   24.1299    5.1089   30.5871 C   0  0  0  0  0  0  0  0  0  0  0  0
   23.9130    6.2046   29.7697 O   0  0  0  0  0  0  0  0  0  0  0  0
   24.9454    7.1747   29.6060 C   0  0  0  0  0  0  0  0  0  0  0  0
   25.3741    4.7857   31.1456 C   0  0  0  0  0  0  0  0  0  0  0  0
   25.5056    3.6911   32.0008 C   0  0  0  0  0  0  0  0  0  0  0  0
   24.4142    2.8780   32.2954 C   0  0  0  0  0  0  0  0  0  0  0  0
   23.1745    3.1802   31.7177 C   0  0  0  0  0  0  0  0  0  0  0  0
   24.6372    1.8269   33.1598 O   0  0  0  0  0  0  0  0  0  0  0  0
   23.7198    0.7356   33.1705 C   0  0  0  0  0  0  0  0  0  0  0  0
   26.3358   12.0383   27.9814 H   0  0  0  0  0  0  0  0  0  0  0  0
   24.7475   11.2128   28.1302 H   0  0  0  0  0  0  0  0  0  0  0  0
   24.8156   12.9874   27.8605 H   0  0  0  0  0  0  0  0  0  0  0  0
   24.1474   12.9649   31.3357 H   0  0  0  0  0  0  0  0  0  0  0  0
   23.4178   13.1261   29.7022 H   0  0  0  0  0  0  0  0  0  0  0  0
   23.0331   10.7267   29.5596 H   0  0  0  0  0  0  0  0  0  0  0  0
   23.9783   10.4315   31.0583 H   0  0  0  0  0  0  0  0  0  0  0  0
   18.9969    7.7098   31.9296 H   0  0  0  0  0  0  0  0  0  0  0  0
   20.0386    7.5286   33.3818 H   0  0  0  0  0  0  0  0  0  0  0  0
   18.1497   10.4048   33.9422 H   0  0  0  0  0  0  0  0  0  0  0  0
   17.5555    9.0930   33.1725 H   0  0  0  0  0  0  0  0  0  0  0  0
   21.0814    3.6422   30.2418 H   0  0  0  0  0  0  0  0  0  0  0  0
   21.8149    4.9266   29.2226 H   0  0  0  0  0  0  0  0  0  0  0  0
   24.5993    7.9683   28.9275 H   0  0  0  0  0  0  0  0  0  0  0  0
   25.1959    7.6119   30.5838 H   0  0  0  0  0  0  0  0  0  0  0  0
   25.8377    6.6921   29.1806 H   0  0  0  0  0  0  0  0  0  0  0  0
   26.2387    5.3893   30.9119 H   0  0  0  0  0  0  0  0  0  0  0  0
   26.4673    3.4714   32.4404 H   0  0  0  0  0  0  0  0  0  0  0  0
   22.3202    2.5543   31.9297 H   0  0  0  0  0  0  0  0  0  0  0  0
   24.0443   -0.0096   33.9117 H   0  0  0  0  0  0  0  0  0  0  0  0
   22.7169    1.1024   33.4343 H   0  0  0  0  0  0  0  0  0  0  0  0
   23.6901    0.2720   32.1734 H   0  0  0  0  0  0  0  0  0  0  0  0
  1  2  1  0  0  0  0
  2  3  1  0  0  0  0
  3  4  1  0  0  0  0
  4  5  1  0  0  0  0
  5  6  1  0  0  0  0
  6 12  1  0  0  0  0
  6  7  2  0  0  0  0
  7  8  1  0  0  0  0
  8  9  1  0  0  0  0
  8 15  2  0  0  0  0
  9 10  1  0  0  0  0
 10 11  1  0  0  0  0
 10 12  2  0  0  0  0
 12 13  1  0  0  0  0
 13 14  3  0  0  0  0
 15 16  1  0  0  0  0
 16 17  2  0  0  0  0
 16 18  1  0  0  0  0
 18 19  1  0  0  0  0
 19 26  2  0  0  0  0
 19 20  1  0  0  0  0
 20 21  1  0  0  0  0
 20 23  2  0  0  0  0
 21 22  1  0  0  0  0
 23 24  1  0  0  0  0
 24 25  2  0  0  0  0
 25 26  1  0  0  0  0
 25 27  1  0  0  0  0
 27 28  1  0  0  0  0
  1 29  1  0  0  0  0
  1 30  1  0  0  0  0
  1 31  1  0  0  0  0
  3 32  1  0  0  0  0
  3 33  1  0  0  0  0
  4 34  1  0  0  0  0
  4 35  1  0  0  0  0
  9 36  1  0  0  0  0
  9 37  1  0  0  0  0
 11 38  1  0  0  0  0
 11 39  1  0  0  0  0
 18 40  1  0  0  0  0
 18 41  1  0  0  0  0
 22 42  1  0  0  0  0
 22 43  1  0  0  0  0
 22 44  1  0  0  0  0
 23 45  1  0  0  0  0
 24 46  1  0  0  0  0
 26 47  1  0  0  0  0
 28 48  1  0  0  0  0
 28 49  1  0  0  0  0
 28 50  1  0  0  0  0
M  END
> <i_m_stars>
0

> <r_user_dG.exp>
-9.465222

$$$$
18659-1
  -OEChem-05162309453D
 Structure written by MMmdl.
 50 51  0     0  0  0  0  0  0999 V2000
   25.3050   12.1344   28.3533 C   0  0  0  0  0  0  0  0  0  0  0  0
   25.3255   12.3475   29.7610 O   0  0  0  0  0  0  0  0  0  0  0  0
   24.0339   12.4868   30.3516 C   0  0  0  0  0  0  0  0  0  0  0  0
   23.3142   11.1388   30.5400 C   0  0  0  0  0  0  0  0  0  0  0  0
   22.1418   11.3640   31.3238 O   0  0  0  0  0  0  0  0  0  0  0  0
   21.3619   10.2949   31.7280 C   0  0  0  0  0  0  0  0  0  0  0  0
   21.7291    9.0548   31.3049 N   0  0  0  0  0  0  0  0  0  0  0  0
   20.9668    8.0091   31.6649 C   0  0  0  0  0  0  0  0  0  0  0  0
   19.8501    8.1315   32.4812 C   0  0  0  0  0  0  0  0  0  0  0  0
   19.4780    9.3944   32.9057 C   0  0  0  0  0  0  0  0  0  0  0  0
   18.3316    9.4546   33.6892 N   0  0  0  0  0  0  0  0  0  0  0  0
   20.2337   10.5143   32.5251 C   0  0  0  0  0  0  0  0  0  0  0  0
   19.8862   11.8780   32.9066 C   0  0  0  0  0  0  0  0  0  0  0  0
   19.6195   12.9648   33.2019 N   0  0  0  0  0  0  0  0  0  0  0  0
   21.4412    6.8348   31.1127 N   0  0  0  0  0  0  0  0  0  0  0  0
   20.8679    5.6312   31.0118 C   0  0  0  0  0  0  0  0  0  0  0  0
   19.7432    5.3541   31.4246 O   0  0  0  0  0  0  0  0  0  0  0  0
   21.6641    4.5751   30.2539 C   0  0  0  0  0  0  0  0  0  0  0  0
   23.0297    4.2834   30.8691 C   0  0  0  0  0  0  0  0  0  0  0  0
   24.1299    5.1089   30.5871 C   0  0  0  0  0  0  0  0  0  0  0  0
   23.9130    6.2046   29.7697 O   0  0  0  0  0  0  0  0  0  0  0  0
   24.9454    7.1747   29.6060 C   0  0  0  0  0  0  0  0  0  0  0  0
   25.3741    4.7857   31.1456 C   0  0  0  0  0  0  0  0  0  0  0  0
   25.5056    3.6911   32.0008 C   0  0  0  0  0  0  0  0  0  0  0  0
   24.4142    2.8780   32.2954 C   0  0  0  0  0  0  0  0  0  0  0  0
   23.1745    3.1802   31.7177 C   0  0  0  0  0  0  0  0  0  0  0  0
   24.6372    1.8269   33.1598 O   0  0  0  0  0  0  0  0  0  0  0  0
   23.7198    0.7356   33.1705 C   0  0  0  0  0  0  0  0  0  0  0  0
   26.3358   12.0383   27.9814 H   0  0  0  0  0  0  0  0  0  0  0  0
   24.7475   11.2128   28.1302 H   0  0  0  0  0  0  0  0  0  0  0  0
   24.8156   12.9874   27.8605 H   0  0  0  0  0  0  0  0  0  0  0  0
   24.1474   12.9649   31.3357 H   0  0  0  0  0  0  0  0  0  0  0  0
   23.4178   13.1261   29.7022 H   0  0  0  0  0  0  0  0  0  0  0  0
   23.0331   10.7267   29.5596 H   0  0  0  0  0  0  0  0  0  0  0  0
   23.9783   10.4315   31.0583 H   0  0  0  0  0  0  0  0  0  0  0  0
   22.5447    8.9254   30.7410 H   0  0  0  0  0  0  0  0  0  0  0  0
   18.9969    7.7098   31.9296 H   0  0  0  0  0  0  0  0  0  0  0  0
   20.0386    7.5286   33.3818 H   0  0  0  0  0  0  0  0  0  0  0  0
   18.1062   10.3928   33.9518 H   0  0  0  0  0  0  0  0  0  0  0  0
   21.0814    3.6422   30.2418 H   0  0  0  0  0  0  0  0  0  0  0  0
   21.8149    4.9266   29.2226 H   0  0  0  0  0  0  0  0  0  0  0  0
   24.5993    7.9683   28.9275 H   0  0  0  0  0  0  0  0  0  0  0  0
   25.1959    7.6119   30.5838 H   0  0  0  0  0  0  0  0  0  0  0  0
   25.8377    6.6921   29.1806 H   0  0  0  0  0  0  0  0  0  0  0  0
   26.2387    5.3893   30.9119 H   0  0  0  0  0  0  0  0  0  0  0  0
   26.4673    3.4714   32.4404 H   0  0  0  0  0  0  0  0  0  0  0  0
   22.3202    2.5543   31.9297 H   0  0  0  0  0  0  0  0  0  0  0  0
   24.0443   -0.0096   33.9117 H   0  0  0  0  0  0  0  0  0  0  0  0
   22.7169    1.1024   33.4343 H   0  0  0  0  0  0  0  0  0  0  0  0
   23.6901    0.2720   32.1734 H   0  0  0  0  0  0  0  0  0  0  0  0
  1  2  1  0  0  0  0
  2  3  1  0  0  0  0
  3  4  1  0  0  0  0
  4  5  1  0  0  0  0
  5  6  1  0  0  0  0
  6 12  2  0  0  0  0
  6  7  1  0  0  0  0
  7  8  1  0  0  0  0
  8  9  1  0  0  0  0
  8 15  2  0  0  0  0
  9 10  1  0  0  0  0
 10 11  2  0  0  0  0
 10 12  1  0  0  0  0
 12 13  1  0  0  0  0
 13 14  3  0  0  0  0
 15 16  1  0  0  0  0
 16 17  2  0  0  0  0
 16 18  1  0  0  0  0
 18 19  1  0  0  0  0
 19 26  2  0  0  0  0
 19 20  1  0  0  0  0
 20 21  1  0  0  0  0
 20 23  2  0  0  0  0
 21 22  1  0  0  0  0
 23 24  1  0  0  0  0
 24 25  2  0  0  0  0
 25 26  1  0  0  0  0
 25 27  1  0  0  0  0
 27 28  1  0  0  0  0
  1 29  1  0  0  0  0
  1 30  1  0  0  0  0
  1 31  1  0  0  0  0
  3 32  1  0  0  0  0
  3 33  1  0  0  0  0
  4 34  1  0  0  0  0
  4 35  1  0  0  0  0
  7 36  1  0  0  0  0
  9 37  1  0  0  0  0
  9 38  1  0  0  0  0
 11 39  1  0  0  0  0
 18 40  1  0  0  0  0
 18 41  1  0  0  0  0
 22 42  1  0  0  0  0
 22 43  1  0  0  0  0
 22 44  1  0  0  0  0
 23 45  1  0  0  0  0
 24 46  1  0  0  0  0
 26 47  1  0  0  0  0
 28 48  1  0  0  0  0
 28 49  1  0  0  0  0
 28 50  1  0  0  0  0
M  END
> <i_m_stars>
0

> <r_user_dG.exp>
-9.465222

$$$$
18659-1
  -OEChem-05162309453D
 Structure written by MMmdl.
 50 51  0     1  0  0  0  0  0999 V2000
   25.3050   12.1344   28.3533 C   0  0  0  0  0  0  0  0  0  0  0  0
   25.3255   12.3475   29.7610 O   0  0  0  0  0  0  0  0  0  0  0  0
   24.0339   12.4868   30.3516 C   0  0  0  0  0  0  0  0  0  0  0  0
   23.3142   11.1388   30.5400 C   0  0  0  0  0  0  0  0  0  0  0  0
   22.1418   11.3640   31.3238 O   0  0  0  0  0  0  0  0  0  0  0  0
   21.3619   10.2949   31.7280 C   0  0  0  0  0  0  0  0  0  0  0  0
   21.7291    9.0548   31.3049 N   0  0  0  0  0  0  0  0  0  0  0  0
   20.9668    8.0091   31.6649 C   0  0  0  0  0  0  0  0  0  0  0  0
   19.8501    8.1315   32.4812 C   0  0  0  0  0  0  0  0  0  0  0  0
   19.4780    9.3944   32.9057 C   0  0  0  0  0  0  0  0  0  0  0  0
   18.3316    9.4546   33.6892 N   0  0  0  0  0  0  0  0  0  0  0  0
   20.2337   10.5143   32.5251 C   0  0  3  0  0  0  0  0  0  0  0  0
   19.8862   11.8780   32.9066 C   0  0  0  0  0  0  0  0  0  0  0  0
   19.6195   12.9648   33.2019 N   0  0  0  0  0  0  0  0  0  0  0  0
   21.4412    6.8348   31.1127 N   0  0  0  0  0  0  0  0  0  0  0  0
   20.8679    5.6312   31.0118 C   0  0  0  0  0  0  0  0  0  0  0  0
   19.7432    5.3541   31.4246 O   0  0  0  0  0  0  0  0  0  0  0  0
   21.6641    4.5751   30.2539 C   0  0  0  0  0  0  0  0  0  0  0  0
   23.0297    4.2834   30.8691 C   0  0  0  0  0  0  0  0  0  0  0  0
   24.1299    5.1089   30.5871 C   0  0  0  0  0  0  0  0  0  0  0  0
   23.9130    6.2046   29.7697 O   0  0  0  0  0  0  0  0  0  0  0  0
   24.9454    7.1747   29.6060 C   0  0  0  0  0  0  0  0  0  0  0  0
   25.3741    4.7857   31.1456 C   0  0  0  0  0  0  0  0  0  0  0  0
   25.5056    3.6911   32.0008 C   0  0  0  0  0  0  0  0  0  0  0  0
   24.4142    2.8780   32.2954 C   0  0  0  0  0  0  0  0  0  0  0  0
   23.1745    3.1802   31.7177 C   0  0  0  0  0  0  0  0  0  0  0  0
   24.6372    1.8269   33.1598 O   0  0  0  0  0  0  0  0  0  0  0  0
   23.7198    0.7356   33.1705 C   0  0  0  0  0  0  0  0  0  0  0  0
   26.3358   12.0383   27.9814 H   0  0  0  0  0  0  0  0  0  0  0  0
   24.7475   11.2128   28.1302 H   0  0  0  0  0  0  0  0  0  0  0  0
   24.8156   12.9874   27.8605 H   0  0  0  0  0  0  0  0  0  0  0  0
   24.1474   12.9649   31.3357 H   0  0  0  0  0  0  0  0  0  0  0  0
   23.4178   13.1261   29.7022 H   0  0  0  0  0  0  0  0  0  0  0  0
   23.0331   10.7267   29.5596 H   0  0  0  0  0  0  0  0  0  0  0  0
   23.9783   10.4315   31.0583 H   0  0  0  0  0  0  0  0  0  0  0  0
   19.2849    7.2604   32.7779 H   0  0  0  0  0  0  0  0  0  0  0  0
   18.1062   10.3928   33.9518 H   0  0  0  0  0  0  0  0  0  0  0  0
   20.8488   10.4129   33.4314 H   0  0  0  0  0  0  0  0  0  0  0  0
   19.5537    4.4416   31.2404 H   0  0  0  0  0  0  0  0  0  0  0  0
   21.0814    3.6422   30.2418 H   0  0  0  0  0  0  0  0  0  0  0  0
   21.8149    4.9266   29.2226 H   0  0  0  0  0  0  0  0  0  0  0  0
   24.5993    7.9683   28.9275 H   0  0  0  0  0  0  0  0  0  0  0  0
   25.1959    7.6119   30.5838 H   0  0  0  0  0  0  0  0  0  0  0  0
   25.8377    6.6921   29.1806 H   0  0  0  0  0  0  0  0  0  0  0  0
   26.2387    5.3893   30.9119 H   0  0  0  0  0  0  0  0  0  0  0  0
   26.4673    3.4714   32.4404 H   0  0  0  0  0  0  0  0  0  0  0  0
   22.3202    2.5543   31.9297 H   0  0  0  0  0  0  0  0  0  0  0  0
   24.0443   -0.0096   33.9117 H   0  0  0  0  0  0  0  0  0  0  0  0
   22.7169    1.1024   33.4343 H   0  0  0  0  0  0  0  0  0  0  0  0
   23.6901    0.2720   32.1734 H   0  0  0  0  0  0  0  0  0  0  0  0
  1  2  1  0  0  0  0
  2  3  1  0  0  0  0
  3  4  1  0  0  0  0
  4  5  1  0  0  0  0
  5  6  1  0  0  0  0
  6 12  1  0  0  0  0
  6  7  2  0  0  0  0
  7  8  1  0  0  0  0
  8  9  2  0  0  0  0
  8 15  1  0  0  0  0
  9 10  1  0  0  0  0
 10 11  2  0  0  0  0
 10 12  1  0  0  0  0
 12 13  1  0  0  0  0
 13 14  3  0  0  0  0
 15 16  2  0  0  0  0
 16 17  1  0  0  0  0
 16 18  1  0  0  0  0
 18 19  1  0  0  0  0
 19 26  2  0  0  0  0
 19 20  1  0  0  0  0
 20 21  1  0  0  0  0
 20 23  2  0  0  0  0
 21 22  1  0  0  0  0
 23 24  1  0  0  0  0
 24 25  2  0  0  0  0
 25 26  1  0  0  0  0
 25 27  1  0  0  0  0
 27 28  1  0  0  0  0
  1 29  1  0  0  0  0
  1 30  1  0  0  0  0
  1 31  1  0  0  0  0
  3 32  1  0  0  0  0
  3 33  1  0  0  0  0
  4 34  1  0  0  0  0
  4 35  1  0  0  0  0
  9 36  1  0  0  0  0
 11 37  1  0  0  0  0
 12 38  1  0  0  0  0
 17 39  1  0  0  0  0
 18 40  1  0  0  0  0
 18 41  1  0  0  0  0
 22 42  1  0  0  0  0
 22 43  1  0  0  0  0
 22 44  1  0  0  0  0
 23 45  1  0  0  0  0
 24 46  1  0  0  0  0
 26 47  1  0  0  0  0
 28 48  1  0  0  0  0
 28 49  1  0  0  0  0
 28 50  1  0  0  0  0
M  END
> <i_m_stars>
0

> <r_user_dG.exp>
-9.465222

$$$$
18659-1
  -OEChem-05162309453D
 Structure written by MMmdl.
 50 51  0     0  0  0  0  0  0999 V2000
   25.3050   12.1344   28.3533 C   0  0  0  0  0  0  0  0  0  0  0  0
   25.3255   12.3475   29.7610 O   0  0  0  0  0  0  0  0  0  0  0  0
   24.0339   12.4868   30.3516 C   0  0  0  0  0  0  0  0  0  0  0  0
   23.3142   11.1388   30.5400 C   0  0  0  0  0  0  0  0  0  0  0  0
   22.1418   11.3640   31.3238 O   0  0  0  0  0  0  0  0  0  0  0  0
   21.3619   10.2949   31.7280 C   0  0  0  0  0  0  0  0  0  0  0  0
   21.7291    9.0548   31.3049 N   0  0  0  0  0  0  0  0  0  0  0  0
   20.9668    8.0091   31.6649 C   0  0  0  0  0  0  0  0  0  0  0  0
   19.8501    8.1315   32.4812 C   0  0  0  0  0  0  0  0  0  0  0  0
   19.4780    9.3944   32.9057 C   0  0  0  0  0  0  0  0  0  0  0  0
   18.3316    9.4546   33.6892 N   0  0  0  0  0  0  0  0  0  0  0  0
   20.2337   10.5143   32.5251 C   0  0  0  0  0  0  0  0  0  0  0  0
   19.8862   11.8780   32.9066 C   0  0  0  0  0  0  0  0  0  0  0  0
   19.6195   12.9648   33.2019 N   0  0  0  0  0  0  0  0  0  0  0  0
   21.4412    6.8348   31.1127 N   0  0  0  0  0  0  0  0  0  0  0  0
   20.8679    5.6312   31.0118 C   0  0  0  0  0  0  0  0  0  0  0  0
   19.7432    5.3541   31.4246 O   0  0  0  0  0  0  0  0  0  0  0  0
   21.6641    4.5751   30.2539 C   0  0  0  0  0  0  0  0  0  0  0  0
   23.0297    4.2834   30.8691 C   0  0  0  0  0  0  0  0  0  0  0  0
   24.1299    5.1089   30.5871 C   0  0  0  0  0  0  0  0  0  0  0  0
   23.9130    6.2046   29.7697 O   0  0  0  0  0  0  0  0  0  0  0  0
   24.9454    7.1747   29.6060 C   0  0  0  0  0  0  0  0  0  0  0  0
   25.3741    4.7857   31.1456 C   0  0  0  0  0  0  0  0  0  0  0  0
   25.5056    3.6911   32.0008 C   0  0  0  0  0  0  0  0  0  0  0  0
   24.4142    2.8780   32.2954 C   0  0  0  0  0  0  0  0  0  0  0  0
   23.1745    3.1802   31.7177 C   0  0  0  0  0  0  0  0  0  0  0  0
   24.6372    1.8269   33.1598 O   0  0  0  0  0  0  0  0  0  0  0  0
   23.7198    0.7356   33.1705 C   0  0  0  0  0  0  0  0  0  0  0  0
   26.3358   12.0383   27.9814 H   0  0  0  0  0  0  0  0  0  0  0  0
   24.7475   11.2128   28.1302 H   0  0  0  0  0  0  0  0  0  0  0  0
   24.8156   12.9874   27.8605 H   0  0  0  0  0  0  0  0  0  0  0  0
   24.1474   12.9649   31.3357 H   0  0  0  0  0  0  0  0  0  0  0  0
   23.4178   13.1261   29.7022 H   0  0  0  0  0  0  0  0  0  0  0  0
   23.0331   10.7267   29.5596 H   0  0  0  0  0  0  0  0  0  0  0  0
   23.9783   10.4315   31.0583 H   0  0  0  0  0  0  0  0  0  0  0  0
   18.9969    7.7098   31.9296 H   0  0  0  0  0  0  0  0  0  0  0  0
   20.0386    7.5286   33.3818 H   0  0  0  0  0  0  0  0  0  0  0  0
   18.1062   10.3928   33.9518 H   0  0  0  0  0  0  0  0  0  0  0  0
   19.5537    4.4416   31.2404 H   0  0  0  0  0  0  0  0  0  0  0  0
   21.0814    3.6422   30.2418 H   0  0  0  0  0  0  0  0  0  0  0  0
   21.8149    4.9266   29.2226 H   0  0  0  0  0  0  0  0  0  0  0  0
   24.5993    7.9683   28.9275 H   0  0  0  0  0  0  0  0  0  0  0  0
   25.1959    7.6119   30.5838 H   0  0  0  0  0  0  0  0  0  0  0  0
   25.8377    6.6921   29.1806 H   0  0  0  0  0  0  0  0  0  0  0  0
   26.2387    5.3893   30.9119 H   0  0  0  0  0  0  0  0  0  0  0  0
   26.4673    3.4714   32.4404 H   0  0  0  0  0  0  0  0  0  0  0  0
   22.3202    2.5543   31.9297 H   0  0  0  0  0  0  0  0  0  0  0  0
   24.0443   -0.0096   33.9117 H   0  0  0  0  0  0  0  0  0  0  0  0
   22.7169    1.1024   33.4343 H   0  0  0  0  0  0  0  0  0  0  0  0
   23.6901    0.2720   32.1734 H   0  0  0  0  0  0  0  0  0  0  0  0
  1  2  1  0  0  0  0
  2  3  1  0  0  0  0
  3  4  1  0  0  0  0
  4  5  1  0  0  0  0
  5  6  1  0  0  0  0
  6 12  2  0  0  0  0
  6  7  1  0  0  0  0
  7  8  2  0  0  0  0
  8  9  1  0  0  0  0
  8 15  1  0  0  0  0
  9 10  1  0  0  0  0
 10 11  2  0  0  0  0
 10 12  1  0  0  0  0
 12 13  1  0  0  0  0
 13 14  3  0  0  0  0
 15 16  2  0  0  0  0
 16 17  1  0  0  0  0
 16 18  1  0  0  0  0
 18 19  1  0  0  0  0
 19 26  2  0  0  0  0
 19 20  1  0  0  0  0
 20 21  1  0  0  0  0
 20 23  2  0  0  0  0
 21 22  1  0  0  0  0
 23 24  1  0  0  0  0
 24 25  2  0  0  0  0
 25 26  1  0  0  0  0
 25 27  1  0  0  0  0
 27 28  1  0  0  0  0
  1 29  1  0  0  0  0
  1 30  1  0  0  0  0
  1 31  1  0  0  0  0
  3 32  1  0  0  0  0
  3 33  1  0  0  0  0
  4 34  1  0  0  0  0
  4 35  1  0  0  0  0
  9 36  1  0  0  0  0
  9 37  1  0  0  0  0
 11 38  1  0  0  0  0
 17 39  1  0  0  0  0
 18 40  1  0  0  0  0
 18 41  1  0  0  0  0
 22 42  1  0  0  0  0
 22 43  1  0  0  0  0
 22 44  1  0  0  0  0
 23 45  1  0  0  0  0
 24 46  1  0  0  0  0
 26 47  1  0  0  0  0
 28 48  1  0  0  0  0
 28 49  1  0  0  0  0
 28 50  1  0  0  0  0
M  END
> <i_m_stars>
0

> <r_user_dG.exp>
-9.465222

$$$$
