CAT-4p
  -OEChem-05162309453D
 Structure written by MMmdl.
 44 47  0     1  0  0  0  0  0999 V2000
   11.7149   -2.1704    1.1859 C   0  0  0  0  0  0  0  0  0  0  0  0
   13.0472   -2.4713    0.6536 N   0  0  0  0  0  0  0  0  0  0  0  0
   14.2073   -2.4898    1.3303 C   0  0  0  0  0  0  0  0  0  0  0  0
   14.3600   -2.2952    2.6436 N   0  0  0  0  0  0  0  0  0  0  0  0
   15.2417   -2.7547    0.5321 N   0  0  0  0  0  0  0  0  0  0  0  0
   14.8171   -3.0611   -0.8292 C   0  0  2  0  0  0  0  0  0  0  0  0
   15.0768   -4.5789   -1.0201 C   0  0  0  0  0  0  0  0  0  0  0  0
   14.2713   -5.5612   -0.3782 C   0  0  0  0  0  0  0  0  0  0  0  0
   14.5686   -6.9356   -0.4681 C   0  0  0  0  0  0  0  0  0  0  0  0
   15.6910   -7.3652   -1.1928 C   0  0  0  0  0  0  0  0  0  0  0  0
   16.5199   -6.4110   -1.8044 C   0  0  0  0  0  0  0  0  0  0  0  0
   16.2187   -5.0421   -1.7029 C   0  0  0  0  0  0  0  0  0  0  0  0
   15.3780   -2.0329   -1.8475 C   0  0  0  0  0  0  0  0  0  0  0  0
   15.7357   -2.3799   -3.1722 C   0  0  0  0  0  0  0  0  0  0  0  0
   16.2339   -1.4073   -4.0511 C   0  0  0  0  0  0  0  0  0  0  0  0
   16.2513   -0.0546   -3.6768 C   0  0  0  0  0  0  0  0  0  0  0  0
   15.7990    0.3581   -2.4048 C   0  0  0  0  0  0  0  0  0  0  0  0
   15.6221    1.8005   -2.0870 C   0  0  0  0  0  0  0  0  0  0  0  0
   15.3734    2.7533   -3.1057 C   0  0  0  0  0  0  0  0  0  0  0  0
   15.0850    4.0531   -2.8896 N   0  0  0  0  0  0  0  0  0  0  0  0
   15.0307    4.4848   -1.6166 C   0  0  0  0  0  0  0  0  0  0  0  0
   15.2978    3.6534   -0.5188 C   0  0  0  0  0  0  0  0  0  0  0  0
   15.2309    4.2780    1.0891 Cl  0  0  0  0  0  0  0  0  0  0  0  0
   15.6053    2.3015   -0.7646 C   0  0  0  0  0  0  0  0  0  0  0  0
   15.4326   -0.6575   -1.4875 C   0  0  0  0  0  0  0  0  0  0  0  0
   13.3072   -2.7857   -0.7105 C   0  0  0  0  0  0  0  0  0  0  0  0
   12.4451   -2.8374   -1.5962 O   0  0  0  0  0  0  0  0  0  0  0  0
   10.9724   -2.2388    0.3772 H   0  0  0  0  0  0  0  0  0  0  0  0
   11.4640   -2.8934    1.9760 H   0  0  0  0  0  0  0  0  0  0  0  0
   11.7085   -1.1531    1.6043 H   0  0  0  0  0  0  0  0  0  0  0  0
   15.2704   -2.3466    3.0542 H   0  0  0  0  0  0  0  0  0  0  0  0
   13.5639   -2.0982    3.2158 H   0  0  0  0  0  0  0  0  0  0  0  0
   13.4104   -5.2451    0.1922 H   0  0  0  0  0  0  0  0  0  0  0  0
   13.9325   -7.6586    0.0208 H   0  0  0  0  0  0  0  0  0  0  0  0
   15.9148   -8.4182   -1.2791 H   0  0  0  0  0  0  0  0  0  0  0  0
   17.3924   -6.7304   -2.3550 H   0  0  0  0  0  0  0  0  0  0  0  0
   16.8821   -4.3240   -2.1618 H   0  0  0  0  0  0  0  0  0  0  0  0
   15.6243   -3.4002   -3.5083 H   0  0  0  0  0  0  0  0  0  0  0  0
   16.6063   -1.7007   -5.0215 H   0  0  0  0  0  0  0  0  0  0  0  0
   16.6174    0.6839   -4.3746 H   0  0  0  0  0  0  0  0  0  0  0  0
   15.4180    2.4141   -4.1301 H   0  0  0  0  0  0  0  0  0  0  0  0
   14.7701    5.5165   -1.4318 H   0  0  0  0  0  0  0  0  0  0  0  0
   15.8297    1.6432    0.0617 H   0  0  0  0  0  0  0  0  0  0  0  0
   15.1849   -0.3765   -0.4746 H   0  0  0  0  0  0  0  0  0  0  0  0
  1  2  1  0  0  0  0
  2  3  1  0  0  0  0
  2 26  1  0  0  0  0
  3  4  1  0  0  0  0
  3  5  2  0  0  0  0
  5  6  1  0  0  0  0
  6  7  1  0  0  0  0
  6 13  1  0  0  0  0
  6 26  1  0  0  0  0
  7  8  2  0  0  0  0
  7 12  1  0  0  0  0
  8  9  1  0  0  0  0
  9 10  2  0  0  0  0
 10 11  1  0  0  0  0
 11 12  2  0  0  0  0
 13 14  2  0  0  0  0
 13 25  1  0  0  0  0
 14 15  1  0  0  0  0
 15 16  2  0  0  0  0
 16 17  1  0  0  0  0
 17 18  1  0  0  0  0
 17 25  2  0  0  0  0
 18 19  2  0  0  0  0
 18 24  1  0  0  0  0
 19 20  1  0  0  0  0
 20 21  2  0  0  0  0
 21 22  1  0  0  0  0
 22 23  1  0  0  0  0
 22 24  2  0  0  0  0
 26 27  2  0  0  0  0
  1 28  1  0  0  0  0
  1 29  1  0  0  0  0
  1 30  1  0  0  0  0
  4 31  1  0  0  0  0
  4 32  1  0  0  0  0
  8 33  1  0  0  0  0
  9 34  1  0  0  0  0
 10 35  1  0  0  0  0
 11 36  1  0  0  0  0
 12 37  1  0  0  0  0
 14 38  1  0  0  0  0
 15 39  1  0  0  0  0
 16 40  1  0  0  0  0
 19 41  1  0  0  0  0
 21 42  1  0  0  0  0
 24 43  1  0  0  0  0
 25 44  1  0  0  0  0
M  END
> <r_user_dG.exp>
-10.083

$$$$
CAT-4p
  -OEChem-05162309453D
 Structure written by MMmdl.
 44 47  0     1  0  0  0  0  0999 V2000
   11.7149   -2.1704    1.1859 C   0  0  0  0  0  0  0  0  0  0  0  0
   13.0472   -2.4713    0.6536 N   0  0  0  0  0  0  0  0  0  0  0  0
   14.2073   -2.4898    1.3303 C   0  0  0  0  0  0  0  0  0  0  0  0
   14.3600   -2.2952    2.6436 N   0  0  0  0  0  0  0  0  0  0  0  0
   15.2417   -2.7547    0.5321 N   0  0  0  0  0  0  0  0  0  0  0  0
   14.8171   -3.0611   -0.8292 C   0  0  2  0  0  0  0  0  0  0  0  0
   15.0768   -4.5789   -1.0201 C   0  0  0  0  0  0  0  0  0  0  0  0
   14.2713   -5.5612   -0.3782 C   0  0  0  0  0  0  0  0  0  0  0  0
   14.5686   -6.9356   -0.4681 C   0  0  0  0  0  0  0  0  0  0  0  0
   15.6910   -7.3652   -1.1928 C   0  0  0  0  0  0  0  0  0  0  0  0
   16.5199   -6.4110   -1.8044 C   0  0  0  0  0  0  0  0  0  0  0  0
   16.2187   -5.0421   -1.7029 C   0  0  0  0  0  0  0  0  0  0  0  0
   15.3780   -2.0329   -1.8475 C   0  0  0  0  0  0  0  0  0  0  0  0
   15.7357   -2.3799   -3.1722 C   0  0  0  0  0  0  0  0  0  0  0  0
   16.2339   -1.4073   -4.0511 C   0  0  0  0  0  0  0  0  0  0  0  0
   16.2513   -0.0546   -3.6768 C   0  0  0  0  0  0  0  0  0  0  0  0
   15.7990    0.3581   -2.4048 C   0  0  0  0  0  0  0  0  0  0  0  0
   15.6221    1.8005   -2.0870 C   0  0  0  0  0  0  0  0  0  0  0  0
   15.3734    2.7533   -3.1057 C   0  0  0  0  0  0  0  0  0  0  0  0
   15.0850    4.0531   -2.8896 N   0  0  0  0  0  0  0  0  0  0  0  0
   15.0307    4.4848   -1.6166 C   0  0  0  0  0  0  0  0  0  0  0  0
   15.2978    3.6534   -0.5188 C   0  0  0  0  0  0  0  0  0  0  0  0
   15.2309    4.2780    1.0891 Cl  0  0  0  0  0  0  0  0  0  0  0  0
   15.6053    2.3015   -0.7646 C   0  0  0  0  0  0  0  0  0  0  0  0
   15.4326   -0.6575   -1.4875 C   0  0  0  0  0  0  0  0  0  0  0  0
   13.3072   -2.7857   -0.7105 C   0  0  0  0  0  0  0  0  0  0  0  0
   12.4451   -2.8374   -1.5962 O   0  0  0  0  0  0  0  0  0  0  0  0
   10.9724   -2.2388    0.3772 H   0  0  0  0  0  0  0  0  0  0  0  0
   11.4640   -2.8934    1.9760 H   0  0  0  0  0  0  0  0  0  0  0  0
   11.7085   -1.1531    1.6043 H   0  0  0  0  0  0  0  0  0  0  0  0
   15.3163   -2.3736    2.9252 H   0  0  0  0  0  0  0  0  0  0  0  0
   16.1958   -2.7445    0.8313 H   0  0  0  0  0  0  0  0  0  0  0  0
   13.4104   -5.2451    0.1922 H   0  0  0  0  0  0  0  0  0  0  0  0
   13.9325   -7.6586    0.0208 H   0  0  0  0  0  0  0  0  0  0  0  0
   15.9148   -8.4182   -1.2791 H   0  0  0  0  0  0  0  0  0  0  0  0
   17.3924   -6.7304   -2.3550 H   0  0  0  0  0  0  0  0  0  0  0  0
   16.8821   -4.3240   -2.1618 H   0  0  0  0  0  0  0  0  0  0  0  0
   15.6243   -3.4002   -3.5083 H   0  0  0  0  0  0  0  0  0  0  0  0
   16.6063   -1.7007   -5.0215 H   0  0  0  0  0  0  0  0  0  0  0  0
   16.6174    0.6839   -4.3746 H   0  0  0  0  0  0  0  0  0  0  0  0
   15.4180    2.4141   -4.1301 H   0  0  0  0  0  0  0  0  0  0  0  0
   14.7701    5.5165   -1.4318 H   0  0  0  0  0  0  0  0  0  0  0  0
   15.8297    1.6432    0.0617 H   0  0  0  0  0  0  0  0  0  0  0  0
   15.1849   -0.3765   -0.4746 H   0  0  0  0  0  0  0  0  0  0  0  0
  1  2  1  0  0  0  0
  2  3  1  0  0  0  0
  2 26  1  0  0  0  0
  3  4  2  0  0  0  0
  3  5  1  0  0  0  0
  5  6  1  0  0  0  0
  6  7  1  0  0  0  0
  6 13  1  0  0  0  0
  6 26  1  0  0  0  0
  7  8  2  0  0  0  0
  7 12  1  0  0  0  0
  8  9  1  0  0  0  0
  9 10  2  0  0  0  0
 10 11  1  0  0  0  0
 11 12  2  0  0  0  0
 13 14  2  0  0  0  0
 13 25  1  0  0  0  0
 14 15  1  0  0  0  0
 15 16  2  0  0  0  0
 16 17  1  0  0  0  0
 17 18  1  0  0  0  0
 17 25  2  0  0  0  0
 18 19  2  0  0  0  0
 18 24  1  0  0  0  0
 19 20  1  0  0  0  0
 20 21  2  0  0  0  0
 21 22  1  0  0  0  0
 22 23  1  0  0  0  0
 22 24  2  0  0  0  0
 26 27  2  0  0  0  0
  1 28  1  0  0  0  0
  1 29  1  0  0  0  0
  1 30  1  0  0  0  0
  4 31  1  0  0  0  0
  5 32  1  0  0  0  0
  8 33  1  0  0  0  0
  9 34  1  0  0  0  0
 10 35  1  0  0  0  0
 11 36  1  0  0  0  0
 12 37  1  0  0  0  0
 14 38  1  0  0  0  0
 15 39  1  0  0  0  0
 16 40  1  0  0  0  0
 19 41  1  0  0  0  0
 21 42  1  0  0  0  0
 24 43  1  0  0  0  0
 25 44  1  0  0  0  0
M  END
> <r_user_dG.exp>
-10.083

$$$$
