CAT-4d
  -OEChem-05162309453D
 Structure written by MMmdl.
 52 55  0     1  0  0  0  0  0999 V2000
   15.3108    5.3150    2.5947 C   0  0  0  0  0  0  0  0  0  0  0  0
   14.9695    5.0166    1.1353 C   0  0  0  0  0  0  0  0  0  0  0  0
   15.4867    3.7530    0.7556 O   0  0  0  0  0  0  0  0  0  0  0  0
   15.3578    3.3823   -0.5664 C   0  0  0  0  0  0  0  0  0  0  0  0
   14.9827    4.2577   -1.6137 C   0  0  0  0  0  0  0  0  0  0  0  0
   14.9085    3.7845   -2.9347 C   0  0  0  0  0  0  0  0  0  0  0  0
   15.1871    2.4352   -3.2242 C   0  0  0  0  0  0  0  0  0  0  0  0
   15.5189    1.5300   -2.1923 C   0  0  0  0  0  0  0  0  0  0  0  0
   15.7100    0.0902   -2.4691 C   0  0  0  0  0  0  0  0  0  0  0  0
   16.2931   -0.3588   -3.6707 C   0  0  0  0  0  0  0  0  0  0  0  0
   16.4451   -1.7318   -3.9338 C   0  0  0  0  0  0  0  0  0  0  0  0
   15.9768   -2.6888   -3.0146 C   0  0  0  0  0  0  0  0  0  0  0  0
   15.3665   -2.2720   -1.8078 C   0  0  0  0  0  0  0  0  0  0  0  0
   14.7938   -3.2738   -0.7900 C   0  0  1  0  0  0  0  0  0  0  0  0
   15.1445   -4.7550   -1.0654 C   0  0  0  0  0  0  0  0  0  0  0  0
   14.3023   -5.6423   -1.7785 C   0  0  0  0  0  0  0  0  0  0  0  0
   14.6606   -6.9934   -1.9603 C   0  0  0  0  0  0  0  0  0  0  0  0
   15.8808   -7.4748   -1.4583 C   0  0  0  0  0  0  0  0  0  0  0  0
   16.7449   -6.6035   -0.7847 C   0  0  0  0  0  0  0  0  0  0  0  0
   16.3663   -5.2668   -0.5791 C   0  0  0  0  0  0  0  0  0  0  0  0
   15.2242   -2.9268    0.5660 N   0  0  0  0  0  0  0  0  0  0  0  0
   14.2063   -2.6297    1.3714 C   0  0  0  0  0  0  0  0  0  0  0  0
   14.3866   -2.3466    2.6644 N   0  0  0  0  0  0  0  0  0  0  0  0
   13.0337   -2.6641    0.7225 N   0  0  0  0  0  0  0  0  0  0  0  0
   11.7158   -2.3156    1.2686 C   0  0  0  0  0  0  0  0  0  0  0  0
   13.2730   -3.0392   -0.6331 C   0  0  0  0  0  0  0  0  0  0  0  0
   12.3895   -3.1129   -1.4956 O   0  0  0  0  0  0  0  0  0  0  0  0
   15.2700   -0.8819   -1.5451 C   0  0  0  0  0  0  0  0  0  0  0  0
   15.6147    2.0341   -0.8762 C   0  0  0  0  0  0  0  0  0  0  0  0
   14.9030    6.2978    2.8736 H   0  0  0  0  0  0  0  0  0  0  0  0
   14.8719    4.5396    3.2397 H   0  0  0  0  0  0  0  0  0  0  0  0
   16.4034    5.3222    2.7215 H   0  0  0  0  0  0  0  0  0  0  0  0
   13.8764    5.0127    1.0122 H   0  0  0  0  0  0  0  0  0  0  0  0
   15.4080    5.7953    0.4940 H   0  0  0  0  0  0  0  0  0  0  0  0
   14.7533    5.2906   -1.3971 H   0  0  0  0  0  0  0  0  0  0  0  0
   14.6362    4.4597   -3.7324 H   0  0  0  0  0  0  0  0  0  0  0  0
   15.1466    2.0887   -4.2463 H   0  0  0  0  0  0  0  0  0  0  0  0
   16.6285    0.3627   -4.4010 H   0  0  0  0  0  0  0  0  0  0  0  0
   16.9241   -2.0537   -4.8467 H   0  0  0  0  0  0  0  0  0  0  0  0
   16.0832   -3.7417   -3.2302 H   0  0  0  0  0  0  0  0  0  0  0  0
   13.3719   -5.2786   -2.1890 H   0  0  0  0  0  0  0  0  0  0  0  0
   13.9947   -7.6606   -2.4873 H   0  0  0  0  0  0  0  0  0  0  0  0
   16.1510   -8.5119   -1.5913 H   0  0  0  0  0  0  0  0  0  0  0  0
   17.6993   -6.9580   -0.4244 H   0  0  0  0  0  0  0  0  0  0  0  0
   17.0292   -4.6119   -0.0332 H   0  0  0  0  0  0  0  0  0  0  0  0
   15.3075   -2.3539    3.0541 H   0  0  0  0  0  0  0  0  0  0  0  0
   13.6007   -2.1274    3.2426 H   0  0  0  0  0  0  0  0  0  0  0  0
   10.9497   -2.4457    0.4901 H   0  0  0  0  0  0  0  0  0  0  0  0
   11.4871   -2.9719    2.1212 H   0  0  0  0  0  0  0  0  0  0  0  0
   11.7234   -1.2680    1.6040 H   0  0  0  0  0  0  0  0  0  0  0  0
   14.8458   -0.5561   -0.6069 H   0  0  0  0  0  0  0  0  0  0  0  0
   15.8950    1.3608   -0.0796 H   0  0  0  0  0  0  0  0  0  0  0  0
  1  2  1  0  0  0  0
  2  3  1  0  0  0  0
  3  4  1  0  0  0  0
  4  5  2  0  0  0  0
  4 29  1  0  0  0  0
  5  6  1  0  0  0  0
  6  7  2  0  0  0  0
  7  8  1  0  0  0  0
  8  9  1  0  0  0  0
  8 29  2  0  0  0  0
  9 10  2  0  0  0  0
  9 28  1  0  0  0  0
 10 11  1  0  0  0  0
 11 12  2  0  0  0  0
 12 13  1  0  0  0  0
 13 14  1  0  0  0  0
 13 28  2  0  0  0  0
 14 15  1  0  0  0  0
 14 21  1  0  0  0  0
 14 26  1  0  0  0  0
 15 16  2  0  0  0  0
 15 20  1  0  0  0  0
 16 17  1  0  0  0  0
 17 18  2  0  0  0  0
 18 19  1  0  0  0  0
 19 20  2  0  0  0  0
 21 22  2  0  0  0  0
 22 23  1  0  0  0  0
 22 24  1  0  0  0  0
 24 25  1  0  0  0  0
 24 26  1  0  0  0  0
 26 27  2  0  0  0  0
  1 30  1  0  0  0  0
  1 31  1  0  0  0  0
  1 32  1  0  0  0  0
  2 33  1  0  0  0  0
  2 34  1  0  0  0  0
  5 35  1  0  0  0  0
  6 36  1  0  0  0  0
  7 37  1  0  0  0  0
 10 38  1  0  0  0  0
 11 39  1  0  0  0  0
 12 40  1  0  0  0  0
 16 41  1  0  0  0  0
 17 42  1  0  0  0  0
 18 43  1  0  0  0  0
 19 44  1  0  0  0  0
 20 45  1  0  0  0  0
 23 46  1  0  0  0  0
 23 47  1  0  0  0  0
 25 48  1  0  0  0  0
 25 49  1  0  0  0  0
 25 50  1  0  0  0  0
 28 51  1  0  0  0  0
 29 52  1  0  0  0  0
M  END
> <r_user_dG.exp>
-9.113

$$$$
CAT-4d
  -OEChem-05162309453D
 Structure written by MMmdl.
 52 55  0     1  0  0  0  0  0999 V2000
   15.3108    5.3150    2.5947 C   0  0  0  0  0  0  0  0  0  0  0  0
   14.9695    5.0166    1.1353 C   0  0  0  0  0  0  0  0  0  0  0  0
   15.4867    3.7530    0.7556 O   0  0  0  0  0  0  0  0  0  0  0  0
   15.3578    3.3823   -0.5664 C   0  0  0  0  0  0  0  0  0  0  0  0
   14.9827    4.2577   -1.6137 C   0  0  0  0  0  0  0  0  0  0  0  0
   14.9085    3.7845   -2.9347 C   0  0  0  0  0  0  0  0  0  0  0  0
   15.1871    2.4352   -3.2242 C   0  0  0  0  0  0  0  0  0  0  0  0
   15.5189    1.5300   -2.1923 C   0  0  0  0  0  0  0  0  0  0  0  0
   15.7100    0.0902   -2.4691 C   0  0  0  0  0  0  0  0  0  0  0  0
   16.2931   -0.3588   -3.6707 C   0  0  0  0  0  0  0  0  0  0  0  0
   16.4451   -1.7318   -3.9338 C   0  0  0  0  0  0  0  0  0  0  0  0
   15.9768   -2.6888   -3.0146 C   0  0  0  0  0  0  0  0  0  0  0  0
   15.3665   -2.2720   -1.8078 C   0  0  0  0  0  0  0  0  0  0  0  0
   14.7938   -3.2738   -0.7900 C   0  0  1  0  0  0  0  0  0  0  0  0
   15.1445   -4.7550   -1.0654 C   0  0  0  0  0  0  0  0  0  0  0  0
   14.3023   -5.6423   -1.7785 C   0  0  0  0  0  0  0  0  0  0  0  0
   14.6606   -6.9934   -1.9603 C   0  0  0  0  0  0  0  0  0  0  0  0
   15.8808   -7.4748   -1.4583 C   0  0  0  0  0  0  0  0  0  0  0  0
   16.7449   -6.6035   -0.7847 C   0  0  0  0  0  0  0  0  0  0  0  0
   16.3663   -5.2668   -0.5791 C   0  0  0  0  0  0  0  0  0  0  0  0
   15.2242   -2.9268    0.5660 N   0  0  0  0  0  0  0  0  0  0  0  0
   14.2063   -2.6297    1.3714 C   0  0  0  0  0  0  0  0  0  0  0  0
   14.3866   -2.3466    2.6644 N   0  0  0  0  0  0  0  0  0  0  0  0
   13.0337   -2.6641    0.7225 N   0  0  0  0  0  0  0  0  0  0  0  0
   11.7158   -2.3156    1.2686 C   0  0  0  0  0  0  0  0  0  0  0  0
   13.2730   -3.0392   -0.6331 C   0  0  0  0  0  0  0  0  0  0  0  0
   12.3895   -3.1129   -1.4956 O   0  0  0  0  0  0  0  0  0  0  0  0
   15.2700   -0.8819   -1.5451 C   0  0  0  0  0  0  0  0  0  0  0  0
   15.6147    2.0341   -0.8762 C   0  0  0  0  0  0  0  0  0  0  0  0
   14.9030    6.2978    2.8736 H   0  0  0  0  0  0  0  0  0  0  0  0
   14.8719    4.5396    3.2397 H   0  0  0  0  0  0  0  0  0  0  0  0
   16.4034    5.3222    2.7215 H   0  0  0  0  0  0  0  0  0  0  0  0
   13.8764    5.0127    1.0122 H   0  0  0  0  0  0  0  0  0  0  0  0
   15.4080    5.7953    0.4940 H   0  0  0  0  0  0  0  0  0  0  0  0
   14.7533    5.2906   -1.3971 H   0  0  0  0  0  0  0  0  0  0  0  0
   14.6362    4.4597   -3.7324 H   0  0  0  0  0  0  0  0  0  0  0  0
   15.1466    2.0887   -4.2463 H   0  0  0  0  0  0  0  0  0  0  0  0
   16.6285    0.3627   -4.4010 H   0  0  0  0  0  0  0  0  0  0  0  0
   16.9241   -2.0537   -4.8467 H   0  0  0  0  0  0  0  0  0  0  0  0
   16.0832   -3.7417   -3.2302 H   0  0  0  0  0  0  0  0  0  0  0  0
   13.3719   -5.2786   -2.1890 H   0  0  0  0  0  0  0  0  0  0  0  0
   13.9947   -7.6606   -2.4873 H   0  0  0  0  0  0  0  0  0  0  0  0
   16.1510   -8.5119   -1.5913 H   0  0  0  0  0  0  0  0  0  0  0  0
   17.6993   -6.9580   -0.4244 H   0  0  0  0  0  0  0  0  0  0  0  0
   17.0292   -4.6119   -0.0332 H   0  0  0  0  0  0  0  0  0  0  0  0
   16.1810   -2.9143    0.8563 H   0  0  0  0  0  0  0  0  0  0  0  0
   13.5228   -2.1524    3.1293 H   0  0  0  0  0  0  0  0  0  0  0  0
   10.9497   -2.4457    0.4901 H   0  0  0  0  0  0  0  0  0  0  0  0
   11.4871   -2.9719    2.1212 H   0  0  0  0  0  0  0  0  0  0  0  0
   11.7234   -1.2680    1.6040 H   0  0  0  0  0  0  0  0  0  0  0  0
   14.8458   -0.5561   -0.6069 H   0  0  0  0  0  0  0  0  0  0  0  0
   15.8950    1.3608   -0.0796 H   0  0  0  0  0  0  0  0  0  0  0  0
  1  2  1  0  0  0  0
  2  3  1  0  0  0  0
  3  4  1  0  0  0  0
  4  5  2  0  0  0  0
  4 29  1  0  0  0  0
  5  6  1  0  0  0  0
  6  7  2  0  0  0  0
  7  8  1  0  0  0  0
  8  9  1  0  0  0  0
  8 29  2  0  0  0  0
  9 10  2  0  0  0  0
  9 28  1  0  0  0  0
 10 11  1  0  0  0  0
 11 12  2  0  0  0  0
 12 13  1  0  0  0  0
 13 14  1  0  0  0  0
 13 28  2  0  0  0  0
 14 15  1  0  0  0  0
 14 21  1  0  0  0  0
 14 26  1  0  0  0  0
 15 16  2  0  0  0  0
 15 20  1  0  0  0  0
 16 17  1  0  0  0  0
 17 18  2  0  0  0  0
 18 19  1  0  0  0  0
 19 20  2  0  0  0  0
 21 22  1  0  0  0  0
 22 23  2  0  0  0  0
 22 24  1  0  0  0  0
 24 25  1  0  0  0  0
 24 26  1  0  0  0  0
 26 27  2  0  0  0  0
  1 30  1  0  0  0  0
  1 31  1  0  0  0  0
  1 32  1  0  0  0  0
  2 33  1  0  0  0  0
  2 34  1  0  0  0  0
  5 35  1  0  0  0  0
  6 36  1  0  0  0  0
  7 37  1  0  0  0  0
 10 38  1  0  0  0  0
 11 39  1  0  0  0  0
 12 40  1  0  0  0  0
 16 41  1  0  0  0  0
 17 42  1  0  0  0  0
 18 43  1  0  0  0  0
 19 44  1  0  0  0  0
 20 45  1  0  0  0  0
 21 46  1  0  0  0  0
 23 47  1  0  0  0  0
 25 48  1  0  0  0  0
 25 49  1  0  0  0  0
 25 50  1  0  0  0  0
 28 51  1  0  0  0  0
 29 52  1  0  0  0  0
M  END
> <r_user_dG.exp>
-9.113

$$$$
