CAT-17g
  -OEChem-05162309453D
 Structure written by MMmdl.
 41 44  0     1  0  0  0  0  0999 V2000
   11.7983   -2.3992    1.0873 C   0  0  0  0  0  0  0  0  0  0  0  0
   13.1443   -2.7114    0.5887 N   0  0  0  0  0  0  0  0  0  0  0  0
   14.2829   -2.6375    1.2928 C   0  0  0  0  0  0  0  0  0  0  0  0
   14.3925   -2.3414    2.5935 N   0  0  0  0  0  0  0  0  0  0  0  0
   15.3435   -2.9154    0.5357 N   0  0  0  0  0  0  0  0  0  0  0  0
   14.9934   -3.2409   -0.8409 C   0  0  1  0  0  0  0  0  0  0  0  0
   15.5293   -2.1817   -1.8225 C   0  0  0  0  0  0  0  0  0  0  0  0
   16.1088   -2.5505   -3.0596 C   0  0  0  0  0  0  0  0  0  0  0  0
   16.5416   -1.5649   -3.9599 C   0  0  0  0  0  0  0  0  0  0  0  0
   16.3804   -0.2048   -3.6507 C   0  0  0  0  0  0  0  0  0  0  0  0
   15.8269    0.2069   -2.4200 C   0  0  0  0  0  0  0  0  0  0  0  0
   15.6415    1.6448   -2.1094 C   0  0  0  0  0  0  0  0  0  0  0  0
   15.4595    2.6157   -3.1212 C   0  0  0  0  0  0  0  0  0  0  0  0
   15.2266    3.9242   -2.8892 N   0  0  0  0  0  0  0  0  0  0  0  0
   15.1698    4.3401   -1.6094 C   0  0  0  0  0  0  0  0  0  0  0  0
   15.3731    3.4813   -0.5178 C   0  0  0  0  0  0  0  0  0  0  0  0
   15.3297    3.9442    0.7545 F   0  0  0  0  0  0  0  0  0  0  0  0
   15.6171    2.1235   -0.7816 C   0  0  0  0  0  0  0  0  0  0  0  0
   15.4212   -0.8013   -1.5126 C   0  0  0  0  0  0  0  0  0  0  0  0
   15.5511   -4.6479   -1.1200 C   0  0  0  0  0  0  0  0  0  0  0  0
   14.9107   -5.9232   -0.6062 C   0  0  0  0  0  0  0  0  0  0  0  0
   14.9367   -5.6375   -2.0871 C   0  0  0  0  0  0  0  0  0  0  0  0
   13.4575   -3.1148   -0.7473 C   0  0  0  0  0  0  0  0  0  0  0  0
   12.6184   -3.2763   -1.6385 O   0  0  0  0  0  0  0  0  0  0  0  0
   11.0640   -2.5521    0.2826 H   0  0  0  0  0  0  0  0  0  0  0  0
   11.5582   -3.0603    1.9331 H   0  0  0  0  0  0  0  0  0  0  0  0
   11.7646   -1.3513    1.4200 H   0  0  0  0  0  0  0  0  0  0  0  0
   15.2930   -2.3236    3.0281 H   0  0  0  0  0  0  0  0  0  0  0  0
   13.5739   -2.1380    3.1307 H   0  0  0  0  0  0  0  0  0  0  0  0
   16.2185   -3.5949   -3.3120 H   0  0  0  0  0  0  0  0  0  0  0  0
   17.0004   -1.8536   -4.8940 H   0  0  0  0  0  0  0  0  0  0  0  0
   16.6862    0.5411   -4.3693 H   0  0  0  0  0  0  0  0  0  0  0  0
   15.5104    2.2877   -4.1489 H   0  0  0  0  0  0  0  0  0  0  0  0
   14.9583    5.3811   -1.4143 H   0  0  0  0  0  0  0  0  0  0  0  0
   15.7873    1.4405    0.0375 H   0  0  0  0  0  0  0  0  0  0  0  0
   15.0167   -0.5105   -0.5544 H   0  0  0  0  0  0  0  0  0  0  0  0
   16.6505   -4.6807   -1.1070 H   0  0  0  0  0  0  0  0  0  0  0  0
   15.5386   -6.7246   -0.1897 H   0  0  0  0  0  0  0  0  0  0  0  0
   13.9604   -5.8775   -0.0540 H   0  0  0  0  0  0  0  0  0  0  0  0
   14.0050   -5.3844   -2.6142 H   0  0  0  0  0  0  0  0  0  0  0  0
   15.5831   -6.2315   -2.7499 H   0  0  0  0  0  0  0  0  0  0  0  0
  1  2  1  0  0  0  0
  2  3  1  0  0  0  0
  2 23  1  0  0  0  0
  3  4  1  0  0  0  0
  3  5  2  0  0  0  0
  5  6  1  0  0  0  0
  6  7  1  0  0  0  0
  6 20  1  0  0  0  0
  6 23  1  0  0  0  0
  7  8  2  0  0  0  0
  7 19  1  0  0  0  0
  8  9  1  0  0  0  0
  9 10  2  0  0  0  0
 10 11  1  0  0  0  0
 11 12  1  0  0  0  0
 11 19  2  0  0  0  0
 12 13  2  0  0  0  0
 12 18  1  0  0  0  0
 13 14  1  0  0  0  0
 14 15  2  0  0  0  0
 15 16  1  0  0  0  0
 16 18  2  0  0  0  0
 16 17  1  0  0  0  0
 20 21  1  0  0  0  0
 20 22  1  0  0  0  0
 21 22  1  0  0  0  0
 23 24  2  0  0  0  0
  1 25  1  0  0  0  0
  1 26  1  0  0  0  0
  1 27  1  0  0  0  0
  4 28  1  0  0  0  0
  4 29  1  0  0  0  0
  8 30  1  0  0  0  0
  9 31  1  0  0  0  0
 10 32  1  0  0  0  0
 13 33  1  0  0  0  0
 15 34  1  0  0  0  0
 18 35  1  0  0  0  0
 19 36  1  0  0  0  0
 20 37  1  0  0  0  0
 21 38  1  0  0  0  0
 21 39  1  0  0  0  0
 22 40  1  0  0  0  0
 22 41  1  0  0  0  0
M  END
> <r_user_dG.exp>
-9.743

$$$$
CAT-17g
  -OEChem-05162309453D
 Structure written by MMmdl.
 41 44  0     1  0  0  0  0  0999 V2000
   11.7983   -2.3992    1.0873 C   0  0  0  0  0  0  0  0  0  0  0  0
   13.1443   -2.7114    0.5887 N   0  0  0  0  0  0  0  0  0  0  0  0
   14.2829   -2.6375    1.2928 C   0  0  0  0  0  0  0  0  0  0  0  0
   14.3925   -2.3414    2.5935 N   0  0  0  0  0  0  0  0  0  0  0  0
   15.3435   -2.9154    0.5357 N   0  0  0  0  0  0  0  0  0  0  0  0
   14.9934   -3.2409   -0.8409 C   0  0  1  0  0  0  0  0  0  0  0  0
   15.5293   -2.1817   -1.8225 C   0  0  0  0  0  0  0  0  0  0  0  0
   16.1088   -2.5505   -3.0596 C   0  0  0  0  0  0  0  0  0  0  0  0
   16.5416   -1.5649   -3.9599 C   0  0  0  0  0  0  0  0  0  0  0  0
   16.3804   -0.2048   -3.6507 C   0  0  0  0  0  0  0  0  0  0  0  0
   15.8269    0.2069   -2.4200 C   0  0  0  0  0  0  0  0  0  0  0  0
   15.6415    1.6448   -2.1094 C   0  0  0  0  0  0  0  0  0  0  0  0
   15.4595    2.6157   -3.1212 C   0  0  0  0  0  0  0  0  0  0  0  0
   15.2266    3.9242   -2.8892 N   0  0  0  0  0  0  0  0  0  0  0  0
   15.1698    4.3401   -1.6094 C   0  0  0  0  0  0  0  0  0  0  0  0
   15.3731    3.4813   -0.5178 C   0  0  0  0  0  0  0  0  0  0  0  0
   15.3297    3.9442    0.7545 F   0  0  0  0  0  0  0  0  0  0  0  0
   15.6171    2.1235   -0.7816 C   0  0  0  0  0  0  0  0  0  0  0  0
   15.4212   -0.8013   -1.5126 C   0  0  0  0  0  0  0  0  0  0  0  0
   15.5511   -4.6479   -1.1200 C   0  0  0  0  0  0  0  0  0  0  0  0
   14.9107   -5.9232   -0.6062 C   0  0  0  0  0  0  0  0  0  0  0  0
   14.9367   -5.6375   -2.0871 C   0  0  0  0  0  0  0  0  0  0  0  0
   13.4575   -3.1148   -0.7473 C   0  0  0  0  0  0  0  0  0  0  0  0
   12.6184   -3.2763   -1.6385 O   0  0  0  0  0  0  0  0  0  0  0  0
   11.0640   -2.5521    0.2826 H   0  0  0  0  0  0  0  0  0  0  0  0
   11.5582   -3.0603    1.9331 H   0  0  0  0  0  0  0  0  0  0  0  0
   11.7646   -1.3513    1.4200 H   0  0  0  0  0  0  0  0  0  0  0  0
   15.3434   -2.3578    2.9026 H   0  0  0  0  0  0  0  0  0  0  0  0
   16.2833   -2.9020    0.8771 H   0  0  0  0  0  0  0  0  0  0  0  0
   16.2185   -3.5949   -3.3120 H   0  0  0  0  0  0  0  0  0  0  0  0
   17.0004   -1.8536   -4.8940 H   0  0  0  0  0  0  0  0  0  0  0  0
   16.6862    0.5411   -4.3693 H   0  0  0  0  0  0  0  0  0  0  0  0
   15.5104    2.2877   -4.1489 H   0  0  0  0  0  0  0  0  0  0  0  0
   14.9583    5.3811   -1.4143 H   0  0  0  0  0  0  0  0  0  0  0  0
   15.7873    1.4405    0.0375 H   0  0  0  0  0  0  0  0  0  0  0  0
   15.0167   -0.5105   -0.5544 H   0  0  0  0  0  0  0  0  0  0  0  0
   16.6505   -4.6807   -1.1070 H   0  0  0  0  0  0  0  0  0  0  0  0
   15.5386   -6.7246   -0.1897 H   0  0  0  0  0  0  0  0  0  0  0  0
   13.9604   -5.8775   -0.0540 H   0  0  0  0  0  0  0  0  0  0  0  0
   14.0050   -5.3844   -2.6142 H   0  0  0  0  0  0  0  0  0  0  0  0
   15.5831   -6.2315   -2.7499 H   0  0  0  0  0  0  0  0  0  0  0  0
  1  2  1  0  0  0  0
  2  3  1  0  0  0  0
  2 23  1  0  0  0  0
  3  4  2  0  0  0  0
  3  5  1  0  0  0  0
  5  6  1  0  0  0  0
  6  7  1  0  0  0  0
  6 20  1  0  0  0  0
  6 23  1  0  0  0  0
  7  8  2  0  0  0  0
  7 19  1  0  0  0  0
  8  9  1  0  0  0  0
  9 10  2  0  0  0  0
 10 11  1  0  0  0  0
 11 12  1  0  0  0  0
 11 19  2  0  0  0  0
 12 13  2  0  0  0  0
 12 18  1  0  0  0  0
 13 14  1  0  0  0  0
 14 15  2  0  0  0  0
 15 16  1  0  0  0  0
 16 18  2  0  0  0  0
 16 17  1  0  0  0  0
 20 21  1  0  0  0  0
 20 22  1  0  0  0  0
 21 22  1  0  0  0  0
 23 24  2  0  0  0  0
  1 25  1  0  0  0  0
  1 26  1  0  0  0  0
  1 27  1  0  0  0  0
  4 28  1  0  0  0  0
  5 29  1  0  0  0  0
  8 30  1  0  0  0  0
  9 31  1  0  0  0  0
 10 32  1  0  0  0  0
 13 33  1  0  0  0  0
 15 34  1  0  0  0  0
 18 35  1  0  0  0  0
 19 36  1  0  0  0  0
 20 37  1  0  0  0  0
 21 38  1  0  0  0  0
 21 39  1  0  0  0  0
 22 40  1  0  0  0  0
 22 41  1  0  0  0  0
M  END
> <r_user_dG.exp>
-9.743

$$$$
