CAT-13h
  -OEChem-05162309453D
 Structure written by MMmdl.
 45 48  0     1  0  0  0  0  0999 V2000
   11.7684   -1.9959    1.1324 C   0  0  0  0  0  0  0  0  0  0  0  0
   13.0773   -2.4188    0.6254 N   0  0  0  0  0  0  0  0  0  0  0  0
   14.2291   -2.5040    1.3137 C   0  0  0  0  0  0  0  0  0  0  0  0
   14.3929   -2.2698    2.6191 N   0  0  0  0  0  0  0  0  0  0  0  0
   15.2451   -2.8865    0.5393 N   0  0  0  0  0  0  0  0  0  0  0  0
   14.8082   -3.1964   -0.8186 C   0  0  1  0  0  0  0  0  0  0  0  0
   15.4852   -2.1794   -1.7990 C   0  0  0  0  0  0  0  0  0  0  0  0
   16.1731   -2.5185   -2.9932 C   0  0  0  0  0  0  0  0  0  0  0  0
   16.6532   -1.5251   -3.8618 C   0  0  0  0  0  0  0  0  0  0  0  0
   16.4491   -0.1688   -3.5713 C   0  0  0  0  0  0  0  0  0  0  0  0
   15.8247    0.2326   -2.3765 C   0  0  0  0  0  0  0  0  0  0  0  0
   15.5945    1.6726   -2.0932 C   0  0  0  0  0  0  0  0  0  0  0  0
   15.3339    2.5855   -3.1442 C   0  0  0  0  0  0  0  0  0  0  0  0
   15.0299    3.9370   -2.8820 C   0  0  0  0  0  0  0  0  0  0  0  0
   15.0030    4.4103   -1.5608 C   0  0  0  0  0  0  0  0  0  0  0  0
   15.3015    3.5355   -0.5053 C   0  0  0  0  0  0  0  0  0  0  0  0
   15.2995    4.1388    1.1106 Cl  0  0  0  0  0  0  0  0  0  0  0  0
   15.5922    2.1813   -0.7728 C   0  0  0  0  0  0  0  0  0  0  0  0
   15.3791   -0.7861   -1.4997 C   0  0  0  0  0  0  0  0  0  0  0  0
   14.9144   -4.7626   -0.9856 C   0  0  0  0  0  0  0  0  0  0  0  0
   14.1547   -5.5339    0.1086 C   0  0  0  0  0  0  0  0  0  0  0  0
   14.8874   -5.4504   -2.3330 C   0  0  0  0  0  0  0  0  0  0  0  0
   16.1530   -5.4449   -1.5196 C   0  0  0  0  0  0  0  0  0  0  0  0
   13.3202   -2.8066   -0.7246 C   0  0  0  0  0  0  0  0  0  0  0  0
   12.4613   -2.8390   -1.6128 O   0  0  0  0  0  0  0  0  0  0  0  0
   11.0292   -2.0353    0.3187 H   0  0  0  0  0  0  0  0  0  0  0  0
   11.4554   -2.6682    1.9448 H   0  0  0  0  0  0  0  0  0  0  0  0
   11.8384   -0.9668    1.5145 H   0  0  0  0  0  0  0  0  0  0  0  0
   15.2943   -2.3804    3.0377 H   0  0  0  0  0  0  0  0  0  0  0  0
   13.6141   -1.9839    3.1774 H   0  0  0  0  0  0  0  0  0  0  0  0
   16.3300   -3.5586   -3.2381 H   0  0  0  0  0  0  0  0  0  0  0  0
   17.1831   -1.8077   -4.7594 H   0  0  0  0  0  0  0  0  0  0  0  0
   16.7768    0.5804   -4.2768 H   0  0  0  0  0  0  0  0  0  0  0  0
   15.3687    2.2395   -4.1667 H   0  0  0  0  0  0  0  0  0  0  0  0
   14.8172    4.6098   -3.6997 H   0  0  0  0  0  0  0  0  0  0  0  0
   14.7541    5.4415   -1.3580 H   0  0  0  0  0  0  0  0  0  0  0  0
   15.8181    1.5177    0.0488 H   0  0  0  0  0  0  0  0  0  0  0  0
   14.9371   -0.4957   -0.5580 H   0  0  0  0  0  0  0  0  0  0  0  0
   14.2651   -6.6152   -0.0604 H   0  0  0  0  0  0  0  0  0  0  0  0
   14.5671   -5.2730    1.0944 H   0  0  0  0  0  0  0  0  0  0  0  0
   13.0888   -5.2645    0.0741 H   0  0  0  0  0  0  0  0  0  0  0  0
   14.3210   -6.3845   -2.4621 H   0  0  0  0  0  0  0  0  0  0  0  0
   14.8234   -4.8525   -3.2541 H   0  0  0  0  0  0  0  0  0  0  0  0
   17.0138   -4.8433   -1.8469 H   0  0  0  0  0  0  0  0  0  0  0  0
   16.5114   -6.3752   -1.0548 H   0  0  0  0  0  0  0  0  0  0  0  0
  1  2  1  0  0  0  0
  2  3  1  0  0  0  0
  2 24  1  0  0  0  0
  3  4  1  0  0  0  0
  3  5  2  0  0  0  0
  5  6  1  0  0  0  0
  6  7  1  0  0  0  0
  6 20  1  0  0  0  0
  6 24  1  0  0  0  0
  7  8  2  0  0  0  0
  7 19  1  0  0  0  0
  8  9  1  0  0  0  0
  9 10  2  0  0  0  0
 10 11  1  0  0  0  0
 11 12  1  0  0  0  0
 11 19  2  0  0  0  0
 12 13  2  0  0  0  0
 12 18  1  0  0  0  0
 13 14  1  0  0  0  0
 14 15  2  0  0  0  0
 15 16  1  0  0  0  0
 16 17  1  0  0  0  0
 16 18  2  0  0  0  0
 20 21  1  0  0  0  0
 20 22  1  0  0  0  0
 20 23  1  0  0  0  0
 22 23  1  0  0  0  0
 24 25  2  0  0  0  0
  1 26  1  0  0  0  0
  1 27  1  0  0  0  0
  1 28  1  0  0  0  0
  4 29  1  0  0  0  0
  4 30  1  0  0  0  0
  8 31  1  0  0  0  0
  9 32  1  0  0  0  0
 10 33  1  0  0  0  0
 13 34  1  0  0  0  0
 14 35  1  0  0  0  0
 15 36  1  0  0  0  0
 18 37  1  0  0  0  0
 19 38  1  0  0  0  0
 21 39  1  0  0  0  0
 21 40  1  0  0  0  0
 21 41  1  0  0  0  0
 22 42  1  0  0  0  0
 22 43  1  0  0  0  0
 23 44  1  0  0  0  0
 23 45  1  0  0  0  0
M  END
> <r_user_dG.exp>
-9.633

$$$$
CAT-13h
  -OEChem-05162309453D
 Structure written by MMmdl.
 45 48  0     1  0  0  0  0  0999 V2000
   11.7684   -1.9959    1.1324 C   0  0  0  0  0  0  0  0  0  0  0  0
   13.0773   -2.4188    0.6254 N   0  0  0  0  0  0  0  0  0  0  0  0
   14.2291   -2.5040    1.3137 C   0  0  0  0  0  0  0  0  0  0  0  0
   14.3929   -2.2698    2.6191 N   0  0  0  0  0  0  0  0  0  0  0  0
   15.2451   -2.8865    0.5393 N   0  0  0  0  0  0  0  0  0  0  0  0
   14.8082   -3.1964   -0.8186 C   0  0  1  0  0  0  0  0  0  0  0  0
   15.4852   -2.1794   -1.7990 C   0  0  0  0  0  0  0  0  0  0  0  0
   16.1731   -2.5185   -2.9932 C   0  0  0  0  0  0  0  0  0  0  0  0
   16.6532   -1.5251   -3.8618 C   0  0  0  0  0  0  0  0  0  0  0  0
   16.4491   -0.1688   -3.5713 C   0  0  0  0  0  0  0  0  0  0  0  0
   15.8247    0.2326   -2.3765 C   0  0  0  0  0  0  0  0  0  0  0  0
   15.5945    1.6726   -2.0932 C   0  0  0  0  0  0  0  0  0  0  0  0
   15.3339    2.5855   -3.1442 C   0  0  0  0  0  0  0  0  0  0  0  0
   15.0299    3.9370   -2.8820 C   0  0  0  0  0  0  0  0  0  0  0  0
   15.0030    4.4103   -1.5608 C   0  0  0  0  0  0  0  0  0  0  0  0
   15.3015    3.5355   -0.5053 C   0  0  0  0  0  0  0  0  0  0  0  0
   15.2995    4.1388    1.1106 Cl  0  0  0  0  0  0  0  0  0  0  0  0
   15.5922    2.1813   -0.7728 C   0  0  0  0  0  0  0  0  0  0  0  0
   15.3791   -0.7861   -1.4997 C   0  0  0  0  0  0  0  0  0  0  0  0
   14.9144   -4.7626   -0.9856 C   0  0  0  0  0  0  0  0  0  0  0  0
   14.1547   -5.5339    0.1086 C   0  0  0  0  0  0  0  0  0  0  0  0
   14.8874   -5.4504   -2.3330 C   0  0  0  0  0  0  0  0  0  0  0  0
   16.1530   -5.4449   -1.5196 C   0  0  0  0  0  0  0  0  0  0  0  0
   13.3202   -2.8066   -0.7246 C   0  0  0  0  0  0  0  0  0  0  0  0
   12.4613   -2.8390   -1.6128 O   0  0  0  0  0  0  0  0  0  0  0  0
   11.0292   -2.0353    0.3187 H   0  0  0  0  0  0  0  0  0  0  0  0
   11.4554   -2.6682    1.9448 H   0  0  0  0  0  0  0  0  0  0  0  0
   11.8384   -0.9668    1.5145 H   0  0  0  0  0  0  0  0  0  0  0  0
   15.3383   -2.4164    2.9103 H   0  0  0  0  0  0  0  0  0  0  0  0
   16.1928   -2.9531    0.8514 H   0  0  0  0  0  0  0  0  0  0  0  0
   16.3300   -3.5586   -3.2381 H   0  0  0  0  0  0  0  0  0  0  0  0
   17.1831   -1.8077   -4.7594 H   0  0  0  0  0  0  0  0  0  0  0  0
   16.7768    0.5804   -4.2768 H   0  0  0  0  0  0  0  0  0  0  0  0
   15.3687    2.2395   -4.1667 H   0  0  0  0  0  0  0  0  0  0  0  0
   14.8172    4.6098   -3.6997 H   0  0  0  0  0  0  0  0  0  0  0  0
   14.7541    5.4415   -1.3580 H   0  0  0  0  0  0  0  0  0  0  0  0
   15.8181    1.5177    0.0488 H   0  0  0  0  0  0  0  0  0  0  0  0
   14.9371   -0.4957   -0.5580 H   0  0  0  0  0  0  0  0  0  0  0  0
   14.2651   -6.6152   -0.0604 H   0  0  0  0  0  0  0  0  0  0  0  0
   14.5671   -5.2730    1.0944 H   0  0  0  0  0  0  0  0  0  0  0  0
   13.0888   -5.2645    0.0741 H   0  0  0  0  0  0  0  0  0  0  0  0
   14.3210   -6.3845   -2.4621 H   0  0  0  0  0  0  0  0  0  0  0  0
   14.8234   -4.8525   -3.2541 H   0  0  0  0  0  0  0  0  0  0  0  0
   17.0138   -4.8433   -1.8469 H   0  0  0  0  0  0  0  0  0  0  0  0
   16.5114   -6.3752   -1.0548 H   0  0  0  0  0  0  0  0  0  0  0  0
  1  2  1  0  0  0  0
  2  3  1  0  0  0  0
  2 24  1  0  0  0  0
  3  4  2  0  0  0  0
  3  5  1  0  0  0  0
  5  6  1  0  0  0  0
  6  7  1  0  0  0  0
  6 20  1  0  0  0  0
  6 24  1  0  0  0  0
  7  8  2  0  0  0  0
  7 19  1  0  0  0  0
  8  9  1  0  0  0  0
  9 10  2  0  0  0  0
 10 11  1  0  0  0  0
 11 12  1  0  0  0  0
 11 19  2  0  0  0  0
 12 13  2  0  0  0  0
 12 18  1  0  0  0  0
 13 14  1  0  0  0  0
 14 15  2  0  0  0  0
 15 16  1  0  0  0  0
 16 17  1  0  0  0  0
 16 18  2  0  0  0  0
 20 21  1  0  0  0  0
 20 22  1  0  0  0  0
 20 23  1  0  0  0  0
 22 23  1  0  0  0  0
 24 25  2  0  0  0  0
  1 26  1  0  0  0  0
  1 27  1  0  0  0  0
  1 28  1  0  0  0  0
  4 29  1  0  0  0  0
  5 30  1  0  0  0  0
  8 31  1  0  0  0  0
  9 32  1  0  0  0  0
 10 33  1  0  0  0  0
 13 34  1  0  0  0  0
 14 35  1  0  0  0  0
 15 36  1  0  0  0  0
 18 37  1  0  0  0  0
 19 38  1  0  0  0  0
 21 39  1  0  0  0  0
 21 40  1  0  0  0  0
 21 41  1  0  0  0  0
 22 42  1  0  0  0  0
 22 43  1  0  0  0  0
 23 44  1  0  0  0  0
 23 45  1  0  0  0  0
M  END
> <r_user_dG.exp>
-9.633

$$$$
