CAT-13n
  -OEChem-05162309453D
 Structure written by MMmdl.
 43 46  0     1  0  0  0  0  0999 V2000
   11.7505   -2.1054    1.1746 C   0  0  0  0  0  0  0  0  0  0  0  0
   13.0754   -2.4192    0.6266 N   0  0  0  0  0  0  0  0  0  0  0  0
   14.2390   -2.4823    1.2955 C   0  0  0  0  0  0  0  0  0  0  0  0
   14.4006   -2.3325    2.6153 N   0  0  0  0  0  0  0  0  0  0  0  0
   15.2678   -2.7183    0.4810 N   0  0  0  0  0  0  0  0  0  0  0  0
   14.8335   -2.9708   -0.8899 C   0  0  1  0  0  0  0  0  0  0  0  0
   15.4350   -1.9353   -1.8793 C   0  0  0  0  0  0  0  0  0  0  0  0
   15.9253   -2.2767   -3.1639 C   0  0  0  0  0  0  0  0  0  0  0  0
   16.4040   -1.2874   -4.0316 C   0  0  0  0  0  0  0  0  0  0  0  0
   16.3188    0.0686   -3.6777 C   0  0  0  0  0  0  0  0  0  0  0  0
   15.8043    0.4637   -2.4251 C   0  0  0  0  0  0  0  0  0  0  0  0
   15.5944    1.8953   -2.0972 C   0  0  0  0  0  0  0  0  0  0  0  0
   15.2922    2.8269   -3.1186 C   0  0  0  0  0  0  0  0  0  0  0  0
   14.9797    4.1676   -2.8198 C   0  0  0  0  0  0  0  0  0  0  0  0
   14.9709    4.6063   -1.4854 C   0  0  0  0  0  0  0  0  0  0  0  0
   15.3020    3.7099   -0.4571 C   0  0  0  0  0  0  0  0  0  0  0  0
   15.2993    4.2576    1.1787 Cl  0  0  0  0  0  0  0  0  0  0  0  0
   15.6141    2.3700   -0.7636 C   0  0  0  0  0  0  0  0  0  0  0  0
   15.4167   -0.5574   -1.5263 C   0  0  0  0  0  0  0  0  0  0  0  0
   15.0325   -4.4912   -1.1330 C   0  0  0  0  0  0  0  0  0  0  0  0
   14.1933   -5.3344   -0.5177 N   0  0  0  0  0  0  0  0  0  0  0  0
   14.3980   -6.6537   -0.6631 C   0  0  0  0  0  0  0  0  0  0  0  0
   15.4737   -7.1474   -1.4002 C   0  0  0  0  0  0  0  0  0  0  0  0
   16.3282   -6.1963   -1.9576 C   0  0  0  0  0  0  0  0  0  0  0  0
   16.1149   -4.8884   -1.7939 N   0  0  0  0  0  0  0  0  0  0  0  0
   13.3292   -2.6538   -0.7567 C   0  0  0  0  0  0  0  0  0  0  0  0
   12.4696   -2.5729   -1.6463 O   0  0  0  0  0  0  0  0  0  0  0  0
   11.0032   -2.1345    0.3680 H   0  0  0  0  0  0  0  0  0  0  0  0
   11.4877   -2.8456    1.9447 H   0  0  0  0  0  0  0  0  0  0  0  0
   11.7676   -1.1008    1.6223 H   0  0  0  0  0  0  0  0  0  0  0  0
   15.3138   -2.3967    3.0177 H   0  0  0  0  0  0  0  0  0  0  0  0
   13.6082   -2.1563    3.1993 H   0  0  0  0  0  0  0  0  0  0  0  0
   15.9299   -3.3103   -3.4771 H   0  0  0  0  0  0  0  0  0  0  0  0
   16.8411   -1.5690   -4.9782 H   0  0  0  0  0  0  0  0  0  0  0  0
   16.6527    0.8217   -4.3761 H   0  0  0  0  0  0  0  0  0  0  0  0
   15.3013    2.5032   -4.1489 H   0  0  0  0  0  0  0  0  0  0  0  0
   14.7469    4.8583   -3.6168 H   0  0  0  0  0  0  0  0  0  0  0  0
   14.7107    5.6281   -1.2517 H   0  0  0  0  0  0  0  0  0  0  0  0
   15.8737    1.6914    0.0355 H   0  0  0  0  0  0  0  0  0  0  0  0
   15.0944   -0.2802   -0.5335 H   0  0  0  0  0  0  0  0  0  0  0  0
   13.7137   -7.3482   -0.1985 H   0  0  0  0  0  0  0  0  0  0  0  0
   15.6362   -8.2069   -1.5321 H   0  0  0  0  0  0  0  0  0  0  0  0
   17.1805   -6.5247   -2.5339 H   0  0  0  0  0  0  0  0  0  0  0  0
  1  2  1  0  0  0  0
  2  3  1  0  0  0  0
  2 26  1  0  0  0  0
  3  4  1  0  0  0  0
  3  5  2  0  0  0  0
  5  6  1  0  0  0  0
  6  7  1  0  0  0  0
  6 20  1  0  0  0  0
  6 26  1  0  0  0  0
  7  8  2  0  0  0  0
  7 19  1  0  0  0  0
  8  9  1  0  0  0  0
  9 10  2  0  0  0  0
 10 11  1  0  0  0  0
 11 12  1  0  0  0  0
 11 19  2  0  0  0  0
 12 13  2  0  0  0  0
 12 18  1  0  0  0  0
 13 14  1  0  0  0  0
 14 15  2  0  0  0  0
 15 16  1  0  0  0  0
 16 17  1  0  0  0  0
 16 18  2  0  0  0  0
 20 21  2  0  0  0  0
 20 25  1  0  0  0  0
 21 22  1  0  0  0  0
 22 23  2  0  0  0  0
 23 24  1  0  0  0  0
 24 25  2  0  0  0  0
 26 27  2  0  0  0  0
  1 28  1  0  0  0  0
  1 29  1  0  0  0  0
  1 30  1  0  0  0  0
  4 31  1  0  0  0  0
  4 32  1  0  0  0  0
  8 33  1  0  0  0  0
  9 34  1  0  0  0  0
 10 35  1  0  0  0  0
 13 36  1  0  0  0  0
 14 37  1  0  0  0  0
 15 38  1  0  0  0  0
 18 39  1  0  0  0  0
 19 40  1  0  0  0  0
 22 41  1  0  0  0  0
 23 42  1  0  0  0  0
 24 43  1  0  0  0  0
M  END
> <r_user_dG.exp>
-8.543

$$$$
CAT-13n
  -OEChem-05162309453D
 Structure written by MMmdl.
 43 46  0     1  0  0  0  0  0999 V2000
   11.7505   -2.1054    1.1746 C   0  0  0  0  0  0  0  0  0  0  0  0
   13.0754   -2.4192    0.6266 N   0  0  0  0  0  0  0  0  0  0  0  0
   14.2390   -2.4823    1.2955 C   0  0  0  0  0  0  0  0  0  0  0  0
   14.4006   -2.3325    2.6153 N   0  0  0  0  0  0  0  0  0  0  0  0
   15.2678   -2.7183    0.4810 N   0  0  0  0  0  0  0  0  0  0  0  0
   14.8335   -2.9708   -0.8899 C   0  0  1  0  0  0  0  0  0  0  0  0
   15.4350   -1.9353   -1.8793 C   0  0  0  0  0  0  0  0  0  0  0  0
   15.9253   -2.2767   -3.1639 C   0  0  0  0  0  0  0  0  0  0  0  0
   16.4040   -1.2874   -4.0316 C   0  0  0  0  0  0  0  0  0  0  0  0
   16.3188    0.0686   -3.6777 C   0  0  0  0  0  0  0  0  0  0  0  0
   15.8043    0.4637   -2.4251 C   0  0  0  0  0  0  0  0  0  0  0  0
   15.5944    1.8953   -2.0972 C   0  0  0  0  0  0  0  0  0  0  0  0
   15.2922    2.8269   -3.1186 C   0  0  0  0  0  0  0  0  0  0  0  0
   14.9797    4.1676   -2.8198 C   0  0  0  0  0  0  0  0  0  0  0  0
   14.9709    4.6063   -1.4854 C   0  0  0  0  0  0  0  0  0  0  0  0
   15.3020    3.7099   -0.4571 C   0  0  0  0  0  0  0  0  0  0  0  0
   15.2993    4.2576    1.1787 Cl  0  0  0  0  0  0  0  0  0  0  0  0
   15.6141    2.3700   -0.7636 C   0  0  0  0  0  0  0  0  0  0  0  0
   15.4167   -0.5574   -1.5263 C   0  0  0  0  0  0  0  0  0  0  0  0
   15.0325   -4.4912   -1.1330 C   0  0  0  0  0  0  0  0  0  0  0  0
   14.1933   -5.3344   -0.5177 N   0  0  0  0  0  0  0  0  0  0  0  0
   14.3980   -6.6537   -0.6631 C   0  0  0  0  0  0  0  0  0  0  0  0
   15.4737   -7.1474   -1.4002 C   0  0  0  0  0  0  0  0  0  0  0  0
   16.3282   -6.1963   -1.9576 C   0  0  0  0  0  0  0  0  0  0  0  0
   16.1149   -4.8884   -1.7939 N   0  0  0  0  0  0  0  0  0  0  0  0
   13.3292   -2.6538   -0.7567 C   0  0  0  0  0  0  0  0  0  0  0  0
   12.4696   -2.5729   -1.6463 O   0  0  0  0  0  0  0  0  0  0  0  0
   11.0032   -2.1345    0.3680 H   0  0  0  0  0  0  0  0  0  0  0  0
   11.4877   -2.8456    1.9447 H   0  0  0  0  0  0  0  0  0  0  0  0
   11.7676   -1.1008    1.6223 H   0  0  0  0  0  0  0  0  0  0  0  0
   15.3589   -2.4193    2.8876 H   0  0  0  0  0  0  0  0  0  0  0  0
   16.2238   -2.7219    0.7743 H   0  0  0  0  0  0  0  0  0  0  0  0
   15.9299   -3.3103   -3.4771 H   0  0  0  0  0  0  0  0  0  0  0  0
   16.8411   -1.5690   -4.9782 H   0  0  0  0  0  0  0  0  0  0  0  0
   16.6527    0.8217   -4.3761 H   0  0  0  0  0  0  0  0  0  0  0  0
   15.3013    2.5032   -4.1489 H   0  0  0  0  0  0  0  0  0  0  0  0
   14.7469    4.8583   -3.6168 H   0  0  0  0  0  0  0  0  0  0  0  0
   14.7107    5.6281   -1.2517 H   0  0  0  0  0  0  0  0  0  0  0  0
   15.8737    1.6914    0.0355 H   0  0  0  0  0  0  0  0  0  0  0  0
   15.0944   -0.2802   -0.5335 H   0  0  0  0  0  0  0  0  0  0  0  0
   13.7137   -7.3482   -0.1985 H   0  0  0  0  0  0  0  0  0  0  0  0
   15.6362   -8.2069   -1.5321 H   0  0  0  0  0  0  0  0  0  0  0  0
   17.1805   -6.5247   -2.5339 H   0  0  0  0  0  0  0  0  0  0  0  0
  1  2  1  0  0  0  0
  2  3  1  0  0  0  0
  2 26  1  0  0  0  0
  3  4  2  0  0  0  0
  3  5  1  0  0  0  0
  5  6  1  0  0  0  0
  6  7  1  0  0  0  0
  6 20  1  0  0  0  0
  6 26  1  0  0  0  0
  7  8  2  0  0  0  0
  7 19  1  0  0  0  0
  8  9  1  0  0  0  0
  9 10  2  0  0  0  0
 10 11  1  0  0  0  0
 11 12  1  0  0  0  0
 11 19  2  0  0  0  0
 12 13  2  0  0  0  0
 12 18  1  0  0  0  0
 13 14  1  0  0  0  0
 14 15  2  0  0  0  0
 15 16  1  0  0  0  0
 16 17  1  0  0  0  0
 16 18  2  0  0  0  0
 20 21  2  0  0  0  0
 20 25  1  0  0  0  0
 21 22  1  0  0  0  0
 22 23  2  0  0  0  0
 23 24  1  0  0  0  0
 24 25  2  0  0  0  0
 26 27  2  0  0  0  0
  1 28  1  0  0  0  0
  1 29  1  0  0  0  0
  1 30  1  0  0  0  0
  4 31  1  0  0  0  0
  5 32  1  0  0  0  0
  8 33  1  0  0  0  0
  9 34  1  0  0  0  0
 10 35  1  0  0  0  0
 13 36  1  0  0  0  0
 14 37  1  0  0  0  0
 15 38  1  0  0  0  0
 18 39  1  0  0  0  0
 19 40  1  0  0  0  0
 22 41  1  0  0  0  0
 23 42  1  0  0  0  0
 24 43  1  0  0  0  0
M  END
> <r_user_dG.exp>
-8.543

$$$$
