CAT-17e
  -OEChem-05162309453D
 Structure written by MMmdl.
 45 48  0     1  0  0  0  0  0999 V2000
   14.8618    4.8350    1.1620 C   0  0  0  0  0  0  0  0  0  0  0  0
   15.5063    3.6190    0.8241 O   0  0  0  0  0  0  0  0  0  0  0  0
   15.5034    3.2547   -0.5041 C   0  0  0  0  0  0  0  0  0  0  0  0
   15.3203    4.1381   -1.5911 C   0  0  0  0  0  0  0  0  0  0  0  0
   15.3573    3.7398   -2.8754 N   0  0  0  0  0  0  0  0  0  0  0  0
   15.5484    2.4300   -3.1296 C   0  0  0  0  0  0  0  0  0  0  0  0
   15.7091    1.4388   -2.1356 C   0  0  0  0  0  0  0  0  0  0  0  0
   15.8420   -0.0010   -2.4606 C   0  0  0  0  0  0  0  0  0  0  0  0
   16.3311   -0.4075   -3.7129 C   0  0  0  0  0  0  0  0  0  0  0  0
   16.3915   -1.7640   -4.0583 C   0  0  0  0  0  0  0  0  0  0  0  0
   15.9457   -2.7515   -3.1643 C   0  0  0  0  0  0  0  0  0  0  0  0
   15.4719   -2.3986   -1.8776 C   0  0  0  0  0  0  0  0  0  0  0  0
   14.9084   -3.4068   -0.8336 C   0  0  1  0  0  0  0  0  0  0  0  0
   15.1744   -4.9292   -0.9309 C   0  0  0  0  0  0  0  0  0  0  0  0
   14.8727   -5.7780   -2.1409 C   0  0  0  0  0  0  0  0  0  0  0  0
   16.2960   -5.6354   -1.6617 C   0  0  0  0  0  0  0  0  0  0  0  0
   15.3119   -3.0245    0.5181 N   0  0  0  0  0  0  0  0  0  0  0  0
   14.2748   -2.7106    1.2950 C   0  0  0  0  0  0  0  0  0  0  0  0
   14.4147   -2.3941    2.5875 N   0  0  0  0  0  0  0  0  0  0  0  0
   13.1175   -2.7746    0.6184 N   0  0  0  0  0  0  0  0  0  0  0  0
   11.7851   -2.4926    1.1586 C   0  0  0  0  0  0  0  0  0  0  0  0
   13.3894   -3.1875   -0.7204 C   0  0  0  0  0  0  0  0  0  0  0  0
   12.5284   -3.3363   -1.5934 O   0  0  0  0  0  0  0  0  0  0  0  0
   15.4440   -1.0125   -1.5544 C   0  0  0  0  0  0  0  0  0  0  0  0
   15.7028    1.8991   -0.8055 C   0  0  0  0  0  0  0  0  0  0  0  0
   14.9389    5.0024    2.2465 H   0  0  0  0  0  0  0  0  0  0  0  0
   15.3445    5.6665    0.6275 H   0  0  0  0  0  0  0  0  0  0  0  0
   13.8016    4.7803    0.8740 H   0  0  0  0  0  0  0  0  0  0  0  0
   15.1422    5.1824   -1.3811 H   0  0  0  0  0  0  0  0  0  0  0  0
   15.5809    2.1170   -4.1627 H   0  0  0  0  0  0  0  0  0  0  0  0
   16.6657    0.3368   -4.4203 H   0  0  0  0  0  0  0  0  0  0  0  0
   16.7848   -2.0533   -5.0216 H   0  0  0  0  0  0  0  0  0  0  0  0
   15.9645   -3.7897   -3.4612 H   0  0  0  0  0  0  0  0  0  0  0  0
   14.9103   -5.4417    0.0059 H   0  0  0  0  0  0  0  0  0  0  0  0
   14.3465   -6.7366   -2.0221 H   0  0  0  0  0  0  0  0  0  0  0  0
   14.5595   -5.3019   -3.0817 H   0  0  0  0  0  0  0  0  0  0  0  0
   17.0198   -5.0544   -2.2520 H   0  0  0  0  0  0  0  0  0  0  0  0
   16.8068   -6.4891   -1.1924 H   0  0  0  0  0  0  0  0  0  0  0  0
   15.3233   -2.3871    3.0050 H   0  0  0  0  0  0  0  0  0  0  0  0
   13.6106   -2.1646    3.1359 H   0  0  0  0  0  0  0  0  0  0  0  0
   11.0321   -2.6286    0.3683 H   0  0  0  0  0  0  0  0  0  0  0  0
   11.5731   -3.1816    1.9894 H   0  0  0  0  0  0  0  0  0  0  0  0
   11.7497   -1.4557    1.5241 H   0  0  0  0  0  0  0  0  0  0  0  0
   15.1034   -0.7193   -0.5723 H   0  0  0  0  0  0  0  0  0  0  0  0
   15.8545    1.1948   -0.0009 H   0  0  0  0  0  0  0  0  0  0  0  0
  1  2  1  0  0  0  0
  2  3  1  0  0  0  0
  3  4  2  0  0  0  0
  3 25  1  0  0  0  0
  4  5  1  0  0  0  0
  5  6  2  0  0  0  0
  6  7  1  0  0  0  0
  7  8  1  0  0  0  0
  7 25  2  0  0  0  0
  8  9  2  0  0  0  0
  8 24  1  0  0  0  0
  9 10  1  0  0  0  0
 10 11  2  0  0  0  0
 11 12  1  0  0  0  0
 12 13  1  0  0  0  0
 12 24  2  0  0  0  0
 13 14  1  0  0  0  0
 13 17  1  0  0  0  0
 13 22  1  0  0  0  0
 14 15  1  0  0  0  0
 14 16  1  0  0  0  0
 15 16  1  0  0  0  0
 17 18  2  0  0  0  0
 18 19  1  0  0  0  0
 18 20  1  0  0  0  0
 20 21  1  0  0  0  0
 20 22  1  0  0  0  0
 22 23  2  0  0  0  0
  1 26  1  0  0  0  0
  1 27  1  0  0  0  0
  1 28  1  0  0  0  0
  4 29  1  0  0  0  0
  6 30  1  0  0  0  0
  9 31  1  0  0  0  0
 10 32  1  0  0  0  0
 11 33  1  0  0  0  0
 14 34  1  0  0  0  0
 15 35  1  0  0  0  0
 15 36  1  0  0  0  0
 16 37  1  0  0  0  0
 16 38  1  0  0  0  0
 19 39  1  0  0  0  0
 19 40  1  0  0  0  0
 21 41  1  0  0  0  0
 21 42  1  0  0  0  0
 21 43  1  0  0  0  0
 24 44  1  0  0  0  0
 25 45  1  0  0  0  0
M  END
> <r_user_dG.exp>
-10.023

$$$$
CAT-17e
  -OEChem-05162309453D
 Structure written by MMmdl.
 45 48  0     1  0  0  0  0  0999 V2000
   14.8618    4.8350    1.1620 C   0  0  0  0  0  0  0  0  0  0  0  0
   15.5063    3.6190    0.8241 O   0  0  0  0  0  0  0  0  0  0  0  0
   15.5034    3.2547   -0.5041 C   0  0  0  0  0  0  0  0  0  0  0  0
   15.3203    4.1381   -1.5911 C   0  0  0  0  0  0  0  0  0  0  0  0
   15.3573    3.7398   -2.8754 N   0  0  0  0  0  0  0  0  0  0  0  0
   15.5484    2.4300   -3.1296 C   0  0  0  0  0  0  0  0  0  0  0  0
   15.7091    1.4388   -2.1356 C   0  0  0  0  0  0  0  0  0  0  0  0
   15.8420   -0.0010   -2.4606 C   0  0  0  0  0  0  0  0  0  0  0  0
   16.3311   -0.4075   -3.7129 C   0  0  0  0  0  0  0  0  0  0  0  0
   16.3915   -1.7640   -4.0583 C   0  0  0  0  0  0  0  0  0  0  0  0
   15.9457   -2.7515   -3.1643 C   0  0  0  0  0  0  0  0  0  0  0  0
   15.4719   -2.3986   -1.8776 C   0  0  0  0  0  0  0  0  0  0  0  0
   14.9084   -3.4068   -0.8336 C   0  0  1  0  0  0  0  0  0  0  0  0
   15.1744   -4.9292   -0.9309 C   0  0  0  0  0  0  0  0  0  0  0  0
   14.8727   -5.7780   -2.1409 C   0  0  0  0  0  0  0  0  0  0  0  0
   16.2960   -5.6354   -1.6617 C   0  0  0  0  0  0  0  0  0  0  0  0
   15.3119   -3.0245    0.5181 N   0  0  0  0  0  0  0  0  0  0  0  0
   14.2748   -2.7106    1.2950 C   0  0  0  0  0  0  0  0  0  0  0  0
   14.4147   -2.3941    2.5875 N   0  0  0  0  0  0  0  0  0  0  0  0
   13.1175   -2.7746    0.6184 N   0  0  0  0  0  0  0  0  0  0  0  0
   11.7851   -2.4926    1.1586 C   0  0  0  0  0  0  0  0  0  0  0  0
   13.3894   -3.1875   -0.7204 C   0  0  0  0  0  0  0  0  0  0  0  0
   12.5284   -3.3363   -1.5934 O   0  0  0  0  0  0  0  0  0  0  0  0
   15.4440   -1.0125   -1.5544 C   0  0  0  0  0  0  0  0  0  0  0  0
   15.7028    1.8991   -0.8055 C   0  0  0  0  0  0  0  0  0  0  0  0
   14.9389    5.0024    2.2465 H   0  0  0  0  0  0  0  0  0  0  0  0
   15.3445    5.6665    0.6275 H   0  0  0  0  0  0  0  0  0  0  0  0
   13.8016    4.7803    0.8740 H   0  0  0  0  0  0  0  0  0  0  0  0
   15.1422    5.1824   -1.3811 H   0  0  0  0  0  0  0  0  0  0  0  0
   15.5809    2.1170   -4.1627 H   0  0  0  0  0  0  0  0  0  0  0  0
   16.6657    0.3368   -4.4203 H   0  0  0  0  0  0  0  0  0  0  0  0
   16.7848   -2.0533   -5.0216 H   0  0  0  0  0  0  0  0  0  0  0  0
   15.9645   -3.7897   -3.4612 H   0  0  0  0  0  0  0  0  0  0  0  0
   14.9103   -5.4417    0.0059 H   0  0  0  0  0  0  0  0  0  0  0  0
   14.3465   -6.7366   -2.0221 H   0  0  0  0  0  0  0  0  0  0  0  0
   14.5595   -5.3019   -3.0817 H   0  0  0  0  0  0  0  0  0  0  0  0
   17.0198   -5.0544   -2.2520 H   0  0  0  0  0  0  0  0  0  0  0  0
   16.8068   -6.4891   -1.1924 H   0  0  0  0  0  0  0  0  0  0  0  0
   16.2628   -3.0009    0.8268 H   0  0  0  0  0  0  0  0  0  0  0  0
   13.5356   -2.2006    3.0231 H   0  0  0  0  0  0  0  0  0  0  0  0
   11.0321   -2.6286    0.3683 H   0  0  0  0  0  0  0  0  0  0  0  0
   11.5731   -3.1816    1.9894 H   0  0  0  0  0  0  0  0  0  0  0  0
   11.7497   -1.4557    1.5241 H   0  0  0  0  0  0  0  0  0  0  0  0
   15.1034   -0.7193   -0.5723 H   0  0  0  0  0  0  0  0  0  0  0  0
   15.8545    1.1948   -0.0009 H   0  0  0  0  0  0  0  0  0  0  0  0
  1  2  1  0  0  0  0
  2  3  1  0  0  0  0
  3  4  2  0  0  0  0
  3 25  1  0  0  0  0
  4  5  1  0  0  0  0
  5  6  2  0  0  0  0
  6  7  1  0  0  0  0
  7  8  1  0  0  0  0
  7 25  2  0  0  0  0
  8  9  2  0  0  0  0
  8 24  1  0  0  0  0
  9 10  1  0  0  0  0
 10 11  2  0  0  0  0
 11 12  1  0  0  0  0
 12 13  1  0  0  0  0
 12 24  2  0  0  0  0
 13 14  1  0  0  0  0
 13 17  1  0  0  0  0
 13 22  1  0  0  0  0
 14 15  1  0  0  0  0
 14 16  1  0  0  0  0
 15 16  1  0  0  0  0
 17 18  1  0  0  0  0
 18 19  2  0  0  0  0
 18 20  1  0  0  0  0
 20 21  1  0  0  0  0
 20 22  1  0  0  0  0
 22 23  2  0  0  0  0
  1 26  1  0  0  0  0
  1 27  1  0  0  0  0
  1 28  1  0  0  0  0
  4 29  1  0  0  0  0
  6 30  1  0  0  0  0
  9 31  1  0  0  0  0
 10 32  1  0  0  0  0
 11 33  1  0  0  0  0
 14 34  1  0  0  0  0
 15 35  1  0  0  0  0
 15 36  1  0  0  0  0
 16 37  1  0  0  0  0
 16 38  1  0  0  0  0
 17 39  1  0  0  0  0
 19 40  1  0  0  0  0
 21 41  1  0  0  0  0
 21 42  1  0  0  0  0
 21 43  1  0  0  0  0
 24 44  1  0  0  0  0
 25 45  1  0  0  0  0
M  END
> <r_user_dG.exp>
-10.023

$$$$
