CAT-4o
  -OEChem-05162309453D
 Structure written by MMmdl.
 44 47  0     1  0  0  0  0  0999 V2000
   11.7084   -2.3338    1.2794 C   0  0  0  0  0  0  0  0  0  0  0  0
   13.0266   -2.6810    0.7326 N   0  0  0  0  0  0  0  0  0  0  0  0
   14.1992   -2.6485    1.3818 C   0  0  0  0  0  0  0  0  0  0  0  0
   14.3805   -2.3629    2.6740 N   0  0  0  0  0  0  0  0  0  0  0  0
   15.2171   -2.9463    0.5767 N   0  0  0  0  0  0  0  0  0  0  0  0
   14.7859   -3.2915   -0.7797 C   0  0  2  0  0  0  0  0  0  0  0  0
   15.1324   -4.7732   -1.0532 C   0  0  0  0  0  0  0  0  0  0  0  0
   16.3613   -5.2807   -0.5804 C   0  0  0  0  0  0  0  0  0  0  0  0
   16.7387   -6.6176   -0.7849 C   0  0  0  0  0  0  0  0  0  0  0  0
   15.8669   -7.4924   -1.4441 C   0  0  0  0  0  0  0  0  0  0  0  0
   14.6403   -7.0146   -1.9346 C   0  0  0  0  0  0  0  0  0  0  0  0
   14.2822   -5.6634   -1.7534 C   0  0  0  0  0  0  0  0  0  0  0  0
   15.3657   -2.2949   -1.7994 C   0  0  0  0  0  0  0  0  0  0  0  0
   15.9428   -2.7229   -3.0177 C   0  0  0  0  0  0  0  0  0  0  0  0
   16.4289   -1.7756   -3.9354 C   0  0  0  0  0  0  0  0  0  0  0  0
   16.3313   -0.4018   -3.6588 C   0  0  0  0  0  0  0  0  0  0  0  0
   15.7806    0.0634   -2.4467 C   0  0  0  0  0  0  0  0  0  0  0  0
   15.6535    1.5125   -2.1627 C   0  0  0  0  0  0  0  0  0  0  0  0
   15.5223    2.4731   -3.1915 C   0  0  0  0  0  0  0  0  0  0  0  0
   15.3349    3.7923   -2.9798 N   0  0  0  0  0  0  0  0  0  0  0  0
   15.2791    4.2298   -1.7075 C   0  0  0  0  0  0  0  0  0  0  0  0
   15.4382    3.3818   -0.6010 C   0  0  0  0  0  0  0  0  0  0  0  0
   15.3969    3.8651    0.6639 F   0  0  0  0  0  0  0  0  0  0  0  0
   15.6332    2.0125   -0.8425 C   0  0  0  0  0  0  0  0  0  0  0  0
   15.3159   -0.9039   -1.5258 C   0  0  0  0  0  0  0  0  0  0  0  0
   13.2665   -3.0500   -0.6247 C   0  0  0  0  0  0  0  0  0  0  0  0
   12.3849   -3.1140   -1.4898 O   0  0  0  0  0  0  0  0  0  0  0  0
   10.9424   -2.4617    0.5003 H   0  0  0  0  0  0  0  0  0  0  0  0
   11.4795   -2.9924    2.1302 H   0  0  0  0  0  0  0  0  0  0  0  0
   11.7160   -1.2871    1.6176 H   0  0  0  0  0  0  0  0  0  0  0  0
   15.3018   -2.3688    3.0629 H   0  0  0  0  0  0  0  0  0  0  0  0
   13.5950   -2.1432    3.2525 H   0  0  0  0  0  0  0  0  0  0  0  0
   17.0303   -4.6223   -0.0462 H   0  0  0  0  0  0  0  0  0  0  0  0
   17.6979   -6.9697   -0.4350 H   0  0  0  0  0  0  0  0  0  0  0  0
   16.1362   -8.5301   -1.5750 H   0  0  0  0  0  0  0  0  0  0  0  0
   13.9697   -7.6846   -2.4521 H   0  0  0  0  0  0  0  0  0  0  0  0
   13.3466   -5.3020   -2.1540 H   0  0  0  0  0  0  0  0  0  0  0  0
   16.0099   -3.7771   -3.2428 H   0  0  0  0  0  0  0  0  0  0  0  0
   16.8804   -2.1061   -4.8592 H   0  0  0  0  0  0  0  0  0  0  0  0
   16.6848    0.3118   -4.3883 H   0  0  0  0  0  0  0  0  0  0  0  0
   15.5756    2.1285   -4.2137 H   0  0  0  0  0  0  0  0  0  0  0  0
   15.1040    5.2808   -1.5308 H   0  0  0  0  0  0  0  0  0  0  0  0
   15.7688    1.3361   -0.0115 H   0  0  0  0  0  0  0  0  0  0  0  0
   14.9092   -0.5723   -0.5819 H   0  0  0  0  0  0  0  0  0  0  0  0
  1  2  1  0  0  0  0
  2  3  1  0  0  0  0
  2 26  1  0  0  0  0
  3  4  1  0  0  0  0
  3  5  2  0  0  0  0
  5  6  1  0  0  0  0
  6  7  1  0  0  0  0
  6 13  1  0  0  0  0
  6 26  1  0  0  0  0
  7  8  2  0  0  0  0
  7 12  1  0  0  0  0
  8  9  1  0  0  0  0
  9 10  2  0  0  0  0
 10 11  1  0  0  0  0
 11 12  2  0  0  0  0
 13 14  2  0  0  0  0
 13 25  1  0  0  0  0
 14 15  1  0  0  0  0
 15 16  2  0  0  0  0
 16 17  1  0  0  0  0
 17 18  1  0  0  0  0
 17 25  2  0  0  0  0
 18 19  2  0  0  0  0
 18 24  1  0  0  0  0
 19 20  1  0  0  0  0
 20 21  2  0  0  0  0
 21 22  1  0  0  0  0
 22 23  1  0  0  0  0
 22 24  2  0  0  0  0
 26 27  2  0  0  0  0
  1 28  1  0  0  0  0
  1 29  1  0  0  0  0
  1 30  1  0  0  0  0
  4 31  1  0  0  0  0
  4 32  1  0  0  0  0
  8 33  1  0  0  0  0
  9 34  1  0  0  0  0
 10 35  1  0  0  0  0
 11 36  1  0  0  0  0
 12 37  1  0  0  0  0
 14 38  1  0  0  0  0
 15 39  1  0  0  0  0
 16 40  1  0  0  0  0
 19 41  1  0  0  0  0
 21 42  1  0  0  0  0
 24 43  1  0  0  0  0
 25 44  1  0  0  0  0
M  END
> <r_user_dG.exp>
-9.383

$$$$
CAT-4o
  -OEChem-05162309453D
 Structure written by MMmdl.
 44 47  0     1  0  0  0  0  0999 V2000
   11.7084   -2.3338    1.2794 C   0  0  0  0  0  0  0  0  0  0  0  0
   13.0266   -2.6810    0.7326 N   0  0  0  0  0  0  0  0  0  0  0  0
   14.1992   -2.6485    1.3818 C   0  0  0  0  0  0  0  0  0  0  0  0
   14.3805   -2.3629    2.6740 N   0  0  0  0  0  0  0  0  0  0  0  0
   15.2171   -2.9463    0.5767 N   0  0  0  0  0  0  0  0  0  0  0  0
   14.7859   -3.2915   -0.7797 C   0  0  2  0  0  0  0  0  0  0  0  0
   15.1324   -4.7732   -1.0532 C   0  0  0  0  0  0  0  0  0  0  0  0
   16.3613   -5.2807   -0.5804 C   0  0  0  0  0  0  0  0  0  0  0  0
   16.7387   -6.6176   -0.7849 C   0  0  0  0  0  0  0  0  0  0  0  0
   15.8669   -7.4924   -1.4441 C   0  0  0  0  0  0  0  0  0  0  0  0
   14.6403   -7.0146   -1.9346 C   0  0  0  0  0  0  0  0  0  0  0  0
   14.2822   -5.6634   -1.7534 C   0  0  0  0  0  0  0  0  0  0  0  0
   15.3657   -2.2949   -1.7994 C   0  0  0  0  0  0  0  0  0  0  0  0
   15.9428   -2.7229   -3.0177 C   0  0  0  0  0  0  0  0  0  0  0  0
   16.4289   -1.7756   -3.9354 C   0  0  0  0  0  0  0  0  0  0  0  0
   16.3313   -0.4018   -3.6588 C   0  0  0  0  0  0  0  0  0  0  0  0
   15.7806    0.0634   -2.4467 C   0  0  0  0  0  0  0  0  0  0  0  0
   15.6535    1.5125   -2.1627 C   0  0  0  0  0  0  0  0  0  0  0  0
   15.5223    2.4731   -3.1915 C   0  0  0  0  0  0  0  0  0  0  0  0
   15.3349    3.7923   -2.9798 N   0  0  0  0  0  0  0  0  0  0  0  0
   15.2791    4.2298   -1.7075 C   0  0  0  0  0  0  0  0  0  0  0  0
   15.4382    3.3818   -0.6010 C   0  0  0  0  0  0  0  0  0  0  0  0
   15.3969    3.8651    0.6639 F   0  0  0  0  0  0  0  0  0  0  0  0
   15.6332    2.0125   -0.8425 C   0  0  0  0  0  0  0  0  0  0  0  0
   15.3159   -0.9039   -1.5258 C   0  0  0  0  0  0  0  0  0  0  0  0
   13.2665   -3.0500   -0.6247 C   0  0  0  0  0  0  0  0  0  0  0  0
   12.3849   -3.1140   -1.4898 O   0  0  0  0  0  0  0  0  0  0  0  0
   10.9424   -2.4617    0.5003 H   0  0  0  0  0  0  0  0  0  0  0  0
   11.4795   -2.9924    2.1302 H   0  0  0  0  0  0  0  0  0  0  0  0
   11.7160   -1.2871    1.6176 H   0  0  0  0  0  0  0  0  0  0  0  0
   15.3450   -2.4036    2.9349 H   0  0  0  0  0  0  0  0  0  0  0  0
   16.1739   -2.9354    0.8672 H   0  0  0  0  0  0  0  0  0  0  0  0
   17.0303   -4.6223   -0.0462 H   0  0  0  0  0  0  0  0  0  0  0  0
   17.6979   -6.9697   -0.4350 H   0  0  0  0  0  0  0  0  0  0  0  0
   16.1362   -8.5301   -1.5750 H   0  0  0  0  0  0  0  0  0  0  0  0
   13.9697   -7.6846   -2.4521 H   0  0  0  0  0  0  0  0  0  0  0  0
   13.3466   -5.3020   -2.1540 H   0  0  0  0  0  0  0  0  0  0  0  0
   16.0099   -3.7771   -3.2428 H   0  0  0  0  0  0  0  0  0  0  0  0
   16.8804   -2.1061   -4.8592 H   0  0  0  0  0  0  0  0  0  0  0  0
   16.6848    0.3118   -4.3883 H   0  0  0  0  0  0  0  0  0  0  0  0
   15.5756    2.1285   -4.2137 H   0  0  0  0  0  0  0  0  0  0  0  0
   15.1040    5.2808   -1.5308 H   0  0  0  0  0  0  0  0  0  0  0  0
   15.7688    1.3361   -0.0115 H   0  0  0  0  0  0  0  0  0  0  0  0
   14.9092   -0.5723   -0.5819 H   0  0  0  0  0  0  0  0  0  0  0  0
  1  2  1  0  0  0  0
  2  3  1  0  0  0  0
  2 26  1  0  0  0  0
  3  4  2  0  0  0  0
  3  5  1  0  0  0  0
  5  6  1  0  0  0  0
  6  7  1  0  0  0  0
  6 13  1  0  0  0  0
  6 26  1  0  0  0  0
  7  8  2  0  0  0  0
  7 12  1  0  0  0  0
  8  9  1  0  0  0  0
  9 10  2  0  0  0  0
 10 11  1  0  0  0  0
 11 12  2  0  0  0  0
 13 14  2  0  0  0  0
 13 25  1  0  0  0  0
 14 15  1  0  0  0  0
 15 16  2  0  0  0  0
 16 17  1  0  0  0  0
 17 18  1  0  0  0  0
 17 25  2  0  0  0  0
 18 19  2  0  0  0  0
 18 24  1  0  0  0  0
 19 20  1  0  0  0  0
 20 21  2  0  0  0  0
 21 22  1  0  0  0  0
 22 23  1  0  0  0  0
 22 24  2  0  0  0  0
 26 27  2  0  0  0  0
  1 28  1  0  0  0  0
  1 29  1  0  0  0  0
  1 30  1  0  0  0  0
  4 31  1  0  0  0  0
  5 32  1  0  0  0  0
  8 33  1  0  0  0  0
  9 34  1  0  0  0  0
 10 35  1  0  0  0  0
 11 36  1  0  0  0  0
 12 37  1  0  0  0  0
 14 38  1  0  0  0  0
 15 39  1  0  0  0  0
 16 40  1  0  0  0  0
 19 41  1  0  0  0  0
 21 42  1  0  0  0  0
 24 43  1  0  0  0  0
 25 44  1  0  0  0  0
M  END
> <r_user_dG.exp>
-9.383

$$$$
