CAT-17f
  -OEChem-05162309453D
 Structure written by MMmdl.
 42 45  0     1  0  0  0  0  0999 V2000
   11.7867   -2.3695    1.0808 C   0  0  0  0  0  0  0  0  0  0  0  0
   13.1391   -2.6647    0.5894 N   0  0  0  0  0  0  0  0  0  0  0  0
   14.2724   -2.5929    1.3025 C   0  0  0  0  0  0  0  0  0  0  0  0
   14.3735   -2.3189    2.6079 N   0  0  0  0  0  0  0  0  0  0  0  0
   15.3400   -2.8503    0.5494 N   0  0  0  0  0  0  0  0  0  0  0  0
   15.0019   -3.1745   -0.8288 C   0  0  1  0  0  0  0  0  0  0  0  0
   15.5499   -2.1167   -1.8053 C   0  0  0  0  0  0  0  0  0  0  0  0
   16.1751   -2.4939   -3.0176 C   0  0  0  0  0  0  0  0  0  0  0  0
   16.6123   -1.5162   -3.9228 C   0  0  0  0  0  0  0  0  0  0  0  0
   16.4089   -0.1561   -3.6430 C   0  0  0  0  0  0  0  0  0  0  0  0
   15.8123    0.2668   -2.4363 C   0  0  0  0  0  0  0  0  0  0  0  0
   15.5764    1.7076   -2.1750 C   0  0  0  0  0  0  0  0  0  0  0  0
   15.3708    2.6232   -3.2325 C   0  0  0  0  0  0  0  0  0  0  0  0
   15.0914    3.9313   -3.0640 N   0  0  0  0  0  0  0  0  0  0  0  0
   15.0096    4.4072   -1.8089 C   0  0  0  0  0  0  0  0  0  0  0  0
   15.2273    3.6080   -0.6782 C   0  0  0  0  0  0  0  0  0  0  0  0
   15.1482    4.1902    0.6471 C   0  0  0  0  0  0  0  0  0  0  0  0
   15.0876    4.6561    1.7026 N   0  0  0  0  0  0  0  0  0  0  0  0
   15.5205    2.2442   -0.8684 C   0  0  0  0  0  0  0  0  0  0  0  0
   15.4068   -0.7330   -1.5195 C   0  0  0  0  0  0  0  0  0  0  0  0
   15.5580   -4.5843   -1.0987 C   0  0  0  0  0  0  0  0  0  0  0  0
   14.8986   -5.8590   -0.6073 C   0  0  0  0  0  0  0  0  0  0  0  0
   14.9623   -5.5654   -2.0855 C   0  0  0  0  0  0  0  0  0  0  0  0
   13.4651   -3.0501   -0.7487 C   0  0  0  0  0  0  0  0  0  0  0  0
   12.6345   -3.2045   -1.6492 O   0  0  0  0  0  0  0  0  0  0  0  0
   11.0604   -2.5165    0.2678 H   0  0  0  0  0  0  0  0  0  0  0  0
   11.5445   -3.0442    1.9152 H   0  0  0  0  0  0  0  0  0  0  0  0
   11.7423   -1.3266    1.4278 H   0  0  0  0  0  0  0  0  0  0  0  0
   15.2716   -2.3029    3.0473 H   0  0  0  0  0  0  0  0  0  0  0  0
   13.5510   -2.1301    3.1443 H   0  0  0  0  0  0  0  0  0  0  0  0
   16.3162   -3.5398   -3.2467 H   0  0  0  0  0  0  0  0  0  0  0  0
   17.1064   -1.8104   -4.8369 H   0  0  0  0  0  0  0  0  0  0  0  0
   16.7159    0.5835   -4.3676 H   0  0  0  0  0  0  0  0  0  0  0  0
   15.4424    2.2496   -4.2433 H   0  0  0  0  0  0  0  0  0  0  0  0
   14.7658    5.4496   -1.6661 H   0  0  0  0  0  0  0  0  0  0  0  0
   15.7029    1.6074   -0.0154 H   0  0  0  0  0  0  0  0  0  0  0  0
   14.9760   -0.4346   -0.5751 H   0  0  0  0  0  0  0  0  0  0  0  0
   16.6566   -4.6233   -1.0591 H   0  0  0  0  0  0  0  0  0  0  0  0
   15.5120   -6.6660   -0.1800 H   0  0  0  0  0  0  0  0  0  0  0  0
   13.9354   -5.8112   -0.0782 H   0  0  0  0  0  0  0  0  0  0  0  0
   14.0450   -5.3045   -2.6337 H   0  0  0  0  0  0  0  0  0  0  0  0
   15.6216   -6.1593   -2.7356 H   0  0  0  0  0  0  0  0  0  0  0  0
  1  2  1  0  0  0  0
  2  3  1  0  0  0  0
  2 24  1  0  0  0  0
  3  4  1  0  0  0  0
  3  5  2  0  0  0  0
  5  6  1  0  0  0  0
  6  7  1  0  0  0  0
  6 21  1  0  0  0  0
  6 24  1  0  0  0  0
  7  8  2  0  0  0  0
  7 20  1  0  0  0  0
  8  9  1  0  0  0  0
  9 10  2  0  0  0  0
 10 11  1  0  0  0  0
 11 12  1  0  0  0  0
 11 20  2  0  0  0  0
 12 13  2  0  0  0  0
 12 19  1  0  0  0  0
 13 14  1  0  0  0  0
 14 15  2  0  0  0  0
 15 16  1  0  0  0  0
 16 17  1  0  0  0  0
 16 19  2  0  0  0  0
 17 18  3  0  0  0  0
 21 22  1  0  0  0  0
 21 23  1  0  0  0  0
 22 23  1  0  0  0  0
 24 25  2  0  0  0  0
  1 26  1  0  0  0  0
  1 27  1  0  0  0  0
  1 28  1  0  0  0  0
  4 29  1  0  0  0  0
  4 30  1  0  0  0  0
  8 31  1  0  0  0  0
  9 32  1  0  0  0  0
 10 33  1  0  0  0  0
 13 34  1  0  0  0  0
 15 35  1  0  0  0  0
 19 36  1  0  0  0  0
 20 37  1  0  0  0  0
 21 38  1  0  0  0  0
 22 39  1  0  0  0  0
 22 40  1  0  0  0  0
 23 41  1  0  0  0  0
 23 42  1  0  0  0  0
M  END
> <r_user_dG.exp>
-9.423

$$$$
CAT-17f
  -OEChem-05162309453D
 Structure written by MMmdl.
 42 45  0     1  0  0  0  0  0999 V2000
   11.7867   -2.3695    1.0808 C   0  0  0  0  0  0  0  0  0  0  0  0
   13.1391   -2.6647    0.5894 N   0  0  0  0  0  0  0  0  0  0  0  0
   14.2724   -2.5929    1.3025 C   0  0  0  0  0  0  0  0  0  0  0  0
   14.3735   -2.3189    2.6079 N   0  0  0  0  0  0  0  0  0  0  0  0
   15.3400   -2.8503    0.5494 N   0  0  0  0  0  0  0  0  0  0  0  0
   15.0019   -3.1745   -0.8288 C   0  0  1  0  0  0  0  0  0  0  0  0
   15.5499   -2.1167   -1.8053 C   0  0  0  0  0  0  0  0  0  0  0  0
   16.1751   -2.4939   -3.0176 C   0  0  0  0  0  0  0  0  0  0  0  0
   16.6123   -1.5162   -3.9228 C   0  0  0  0  0  0  0  0  0  0  0  0
   16.4089   -0.1561   -3.6430 C   0  0  0  0  0  0  0  0  0  0  0  0
   15.8123    0.2668   -2.4363 C   0  0  0  0  0  0  0  0  0  0  0  0
   15.5764    1.7076   -2.1750 C   0  0  0  0  0  0  0  0  0  0  0  0
   15.3708    2.6232   -3.2325 C   0  0  0  0  0  0  0  0  0  0  0  0
   15.0914    3.9313   -3.0640 N   0  0  0  0  0  0  0  0  0  0  0  0
   15.0096    4.4072   -1.8089 C   0  0  0  0  0  0  0  0  0  0  0  0
   15.2273    3.6080   -0.6782 C   0  0  0  0  0  0  0  0  0  0  0  0
   15.1482    4.1902    0.6471 C   0  0  0  0  0  0  0  0  0  0  0  0
   15.0876    4.6561    1.7026 N   0  0  0  0  0  0  0  0  0  0  0  0
   15.5205    2.2442   -0.8684 C   0  0  0  0  0  0  0  0  0  0  0  0
   15.4068   -0.7330   -1.5195 C   0  0  0  0  0  0  0  0  0  0  0  0
   15.5580   -4.5843   -1.0987 C   0  0  0  0  0  0  0  0  0  0  0  0
   14.8986   -5.8590   -0.6073 C   0  0  0  0  0  0  0  0  0  0  0  0
   14.9623   -5.5654   -2.0855 C   0  0  0  0  0  0  0  0  0  0  0  0
   13.4651   -3.0501   -0.7487 C   0  0  0  0  0  0  0  0  0  0  0  0
   12.6345   -3.2045   -1.6492 O   0  0  0  0  0  0  0  0  0  0  0  0
   11.0604   -2.5165    0.2678 H   0  0  0  0  0  0  0  0  0  0  0  0
   11.5445   -3.0442    1.9152 H   0  0  0  0  0  0  0  0  0  0  0  0
   11.7423   -1.3266    1.4278 H   0  0  0  0  0  0  0  0  0  0  0  0
   15.3229   -2.3347    2.9215 H   0  0  0  0  0  0  0  0  0  0  0  0
   16.2779   -2.8236    0.8952 H   0  0  0  0  0  0  0  0  0  0  0  0
   16.3162   -3.5398   -3.2467 H   0  0  0  0  0  0  0  0  0  0  0  0
   17.1064   -1.8104   -4.8369 H   0  0  0  0  0  0  0  0  0  0  0  0
   16.7159    0.5835   -4.3676 H   0  0  0  0  0  0  0  0  0  0  0  0
   15.4424    2.2496   -4.2433 H   0  0  0  0  0  0  0  0  0  0  0  0
   14.7658    5.4496   -1.6661 H   0  0  0  0  0  0  0  0  0  0  0  0
   15.7029    1.6074   -0.0154 H   0  0  0  0  0  0  0  0  0  0  0  0
   14.9760   -0.4346   -0.5751 H   0  0  0  0  0  0  0  0  0  0  0  0
   16.6566   -4.6233   -1.0591 H   0  0  0  0  0  0  0  0  0  0  0  0
   15.5120   -6.6660   -0.1800 H   0  0  0  0  0  0  0  0  0  0  0  0
   13.9354   -5.8112   -0.0782 H   0  0  0  0  0  0  0  0  0  0  0  0
   14.0450   -5.3045   -2.6337 H   0  0  0  0  0  0  0  0  0  0  0  0
   15.6216   -6.1593   -2.7356 H   0  0  0  0  0  0  0  0  0  0  0  0
  1  2  1  0  0  0  0
  2  3  1  0  0  0  0
  2 24  1  0  0  0  0
  3  4  2  0  0  0  0
  3  5  1  0  0  0  0
  5  6  1  0  0  0  0
  6  7  1  0  0  0  0
  6 21  1  0  0  0  0
  6 24  1  0  0  0  0
  7  8  2  0  0  0  0
  7 20  1  0  0  0  0
  8  9  1  0  0  0  0
  9 10  2  0  0  0  0
 10 11  1  0  0  0  0
 11 12  1  0  0  0  0
 11 20  2  0  0  0  0
 12 13  2  0  0  0  0
 12 19  1  0  0  0  0
 13 14  1  0  0  0  0
 14 15  2  0  0  0  0
 15 16  1  0  0  0  0
 16 17  1  0  0  0  0
 16 19  2  0  0  0  0
 17 18  3  0  0  0  0
 21 22  1  0  0  0  0
 21 23  1  0  0  0  0
 22 23  1  0  0  0  0
 24 25  2  0  0  0  0
  1 26  1  0  0  0  0
  1 27  1  0  0  0  0
  1 28  1  0  0  0  0
  4 29  1  0  0  0  0
  5 30  1  0  0  0  0
  8 31  1  0  0  0  0
  9 32  1  0  0  0  0
 10 33  1  0  0  0  0
 13 34  1  0  0  0  0
 15 35  1  0  0  0  0
 19 36  1  0  0  0  0
 20 37  1  0  0  0  0
 21 38  1  0  0  0  0
 22 39  1  0  0  0  0
 22 40  1  0  0  0  0
 23 41  1  0  0  0  0
 23 42  1  0  0  0  0
M  END
> <r_user_dG.exp>
-9.423

$$$$
