CAT-17a
  -OEChem-05162309453D
 Structure written by MMmdl.
 42 45  0     1  0  0  0  0  0999 V2000
   11.7268   -2.5836    1.3295 C   0  0  0  0  0  0  0  0  0  0  0  0
   13.0531   -2.6452    0.7063 N   0  0  0  0  0  0  0  0  0  0  0  0
   14.2316   -2.5932    1.3460 C   0  0  0  0  0  0  0  0  0  0  0  0
   14.4073   -2.4121    2.6584 N   0  0  0  0  0  0  0  0  0  0  0  0
   15.2573   -2.7748    0.5129 N   0  0  0  0  0  0  0  0  0  0  0  0
   14.8116   -3.0762   -0.8432 C   0  0  1  0  0  0  0  0  0  0  0  0
   15.3587   -2.0157   -1.8435 C   0  0  0  0  0  0  0  0  0  0  0  0
   16.0195   -2.3189   -3.0601 C   0  0  0  0  0  0  0  0  0  0  0  0
   16.4383   -1.2952   -3.9239 C   0  0  0  0  0  0  0  0  0  0  0  0
   16.1807    0.0504   -3.6165 C   0  0  0  0  0  0  0  0  0  0  0  0
   15.5427    0.4050   -2.4118 C   0  0  0  0  0  0  0  0  0  0  0  0
   15.2156    1.8211   -2.1137 C   0  0  0  0  0  0  0  0  0  0  0  0
   15.3567    2.3665   -0.8156 C   0  0  0  0  0  0  0  0  0  0  0  0
   14.9849    3.7006   -0.5364 C   0  0  0  0  0  0  0  0  0  0  0  0
   15.1555    4.3443    1.0546 Cl  0  0  0  0  0  0  0  0  0  0  0  0
   14.4606    4.5126   -1.5547 C   0  0  0  0  0  0  0  0  0  0  0  0
   14.3209    3.9933   -2.8516 C   0  0  0  0  0  0  0  0  0  0  0  0
   13.6519    4.9766   -4.0966 Cl  0  0  0  0  0  0  0  0  0  0  0  0
   14.7046    2.6647   -3.1281 C   0  0  0  0  0  0  0  0  0  0  0  0
   15.1679   -0.6375   -1.5331 C   0  0  0  0  0  0  0  0  0  0  0  0
   15.0322   -4.5979   -1.0297 C   0  0  0  0  0  0  0  0  0  0  0  0
   14.8677   -5.3412   -2.3307 C   0  0  0  0  0  0  0  0  0  0  0  0
   16.2127   -5.2990   -1.6572 C   0  0  0  0  0  0  0  0  0  0  0  0
   13.2933   -2.8878   -0.6768 C   0  0  0  0  0  0  0  0  0  0  0  0
   12.4116   -2.9823   -1.5385 O   0  0  0  0  0  0  0  0  0  0  0  0
   10.9521   -2.6498    0.5514 H   0  0  0  0  0  0  0  0  0  0  0  0
   11.6128   -3.4220    2.0325 H   0  0  0  0  0  0  0  0  0  0  0  0
   11.6207   -1.6328    1.8724 H   0  0  0  0  0  0  0  0  0  0  0  0
   15.3301   -2.4100    3.0437 H   0  0  0  0  0  0  0  0  0  0  0  0
   13.6160   -2.2787    3.2551 H   0  0  0  0  0  0  0  0  0  0  0  0
   16.2029   -3.3496   -3.3255 H   0  0  0  0  0  0  0  0  0  0  0  0
   16.9638   -1.5448   -4.8338 H   0  0  0  0  0  0  0  0  0  0  0  0
   16.4752    0.8225   -4.3118 H   0  0  0  0  0  0  0  0  0  0  0  0
   15.7563    1.7511   -0.0231 H   0  0  0  0  0  0  0  0  0  0  0  0
   14.1667    5.5298   -1.3418 H   0  0  0  0  0  0  0  0  0  0  0  0
   14.6065    2.2837   -4.1339 H   0  0  0  0  0  0  0  0  0  0  0  0
   14.7178   -0.3785   -0.5862 H   0  0  0  0  0  0  0  0  0  0  0  0
   14.6247   -5.1658   -0.1803 H   0  0  0  0  0  0  0  0  0  0  0  0
   14.2962   -6.2807   -2.3584 H   0  0  0  0  0  0  0  0  0  0  0  0
   14.7031   -4.7842   -3.2649 H   0  0  0  0  0  0  0  0  0  0  0  0
   17.0307   -4.7108   -2.0987 H   0  0  0  0  0  0  0  0  0  0  0  0
   16.6237   -6.2073   -1.1923 H   0  0  0  0  0  0  0  0  0  0  0  0
  1  2  1  0  0  0  0
  2  3  1  0  0  0  0
  2 24  1  0  0  0  0
  3  4  1  0  0  0  0
  3  5  2  0  0  0  0
  5  6  1  0  0  0  0
  6  7  1  0  0  0  0
  6 21  1  0  0  0  0
  6 24  1  0  0  0  0
  7  8  2  0  0  0  0
  7 20  1  0  0  0  0
  8  9  1  0  0  0  0
  9 10  2  0  0  0  0
 10 11  1  0  0  0  0
 11 12  1  0  0  0  0
 11 20  2  0  0  0  0
 12 13  2  0  0  0  0
 12 19  1  0  0  0  0
 13 14  1  0  0  0  0
 14 15  1  0  0  0  0
 14 16  2  0  0  0  0
 16 17  1  0  0  0  0
 17 18  1  0  0  0  0
 17 19  2  0  0  0  0
 21 22  1  0  0  0  0
 21 23  1  0  0  0  0
 22 23  1  0  0  0  0
 24 25  2  0  0  0  0
  1 26  1  0  0  0  0
  1 27  1  0  0  0  0
  1 28  1  0  0  0  0
  4 29  1  0  0  0  0
  4 30  1  0  0  0  0
  8 31  1  0  0  0  0
  9 32  1  0  0  0  0
 10 33  1  0  0  0  0
 13 34  1  0  0  0  0
 16 35  1  0  0  0  0
 19 36  1  0  0  0  0
 20 37  1  0  0  0  0
 21 38  1  0  0  0  0
 22 39  1  0  0  0  0
 22 40  1  0  0  0  0
 23 41  1  0  0  0  0
 23 42  1  0  0  0  0
M  END
> <r_user_dG.exp>
-10.733

$$$$
CAT-17a
  -OEChem-05162309453D
 Structure written by MMmdl.
 42 45  0     1  0  0  0  0  0999 V2000
   11.7268   -2.5836    1.3295 C   0  0  0  0  0  0  0  0  0  0  0  0
   13.0531   -2.6452    0.7063 N   0  0  0  0  0  0  0  0  0  0  0  0
   14.2316   -2.5932    1.3460 C   0  0  0  0  0  0  0  0  0  0  0  0
   14.4073   -2.4121    2.6584 N   0  0  0  0  0  0  0  0  0  0  0  0
   15.2573   -2.7748    0.5129 N   0  0  0  0  0  0  0  0  0  0  0  0
   14.8116   -3.0762   -0.8432 C   0  0  1  0  0  0  0  0  0  0  0  0
   15.3587   -2.0157   -1.8435 C   0  0  0  0  0  0  0  0  0  0  0  0
   16.0195   -2.3189   -3.0601 C   0  0  0  0  0  0  0  0  0  0  0  0
   16.4383   -1.2952   -3.9239 C   0  0  0  0  0  0  0  0  0  0  0  0
   16.1807    0.0504   -3.6165 C   0  0  0  0  0  0  0  0  0  0  0  0
   15.5427    0.4050   -2.4118 C   0  0  0  0  0  0  0  0  0  0  0  0
   15.2156    1.8211   -2.1137 C   0  0  0  0  0  0  0  0  0  0  0  0
   15.3567    2.3665   -0.8156 C   0  0  0  0  0  0  0  0  0  0  0  0
   14.9849    3.7006   -0.5364 C   0  0  0  0  0  0  0  0  0  0  0  0
   15.1555    4.3443    1.0546 Cl  0  0  0  0  0  0  0  0  0  0  0  0
   14.4606    4.5126   -1.5547 C   0  0  0  0  0  0  0  0  0  0  0  0
   14.3209    3.9933   -2.8516 C   0  0  0  0  0  0  0  0  0  0  0  0
   13.6519    4.9766   -4.0966 Cl  0  0  0  0  0  0  0  0  0  0  0  0
   14.7046    2.6647   -3.1281 C   0  0  0  0  0  0  0  0  0  0  0  0
   15.1679   -0.6375   -1.5331 C   0  0  0  0  0  0  0  0  0  0  0  0
   15.0322   -4.5979   -1.0297 C   0  0  0  0  0  0  0  0  0  0  0  0
   14.8677   -5.3412   -2.3307 C   0  0  0  0  0  0  0  0  0  0  0  0
   16.2127   -5.2990   -1.6572 C   0  0  0  0  0  0  0  0  0  0  0  0
   13.2933   -2.8878   -0.6768 C   0  0  0  0  0  0  0  0  0  0  0  0
   12.4116   -2.9823   -1.5385 O   0  0  0  0  0  0  0  0  0  0  0  0
   10.9521   -2.6498    0.5514 H   0  0  0  0  0  0  0  0  0  0  0  0
   11.6128   -3.4220    2.0325 H   0  0  0  0  0  0  0  0  0  0  0  0
   11.6207   -1.6328    1.8724 H   0  0  0  0  0  0  0  0  0  0  0  0
   15.3741   -2.4316    2.9131 H   0  0  0  0  0  0  0  0  0  0  0  0
   16.2174   -2.7119    0.7854 H   0  0  0  0  0  0  0  0  0  0  0  0
   16.2029   -3.3496   -3.3255 H   0  0  0  0  0  0  0  0  0  0  0  0
   16.9638   -1.5448   -4.8338 H   0  0  0  0  0  0  0  0  0  0  0  0
   16.4752    0.8225   -4.3118 H   0  0  0  0  0  0  0  0  0  0  0  0
   15.7563    1.7511   -0.0231 H   0  0  0  0  0  0  0  0  0  0  0  0
   14.1667    5.5298   -1.3418 H   0  0  0  0  0  0  0  0  0  0  0  0
   14.6065    2.2837   -4.1339 H   0  0  0  0  0  0  0  0  0  0  0  0
   14.7178   -0.3785   -0.5862 H   0  0  0  0  0  0  0  0  0  0  0  0
   14.6247   -5.1658   -0.1803 H   0  0  0  0  0  0  0  0  0  0  0  0
   14.2962   -6.2807   -2.3584 H   0  0  0  0  0  0  0  0  0  0  0  0
   14.7031   -4.7842   -3.2649 H   0  0  0  0  0  0  0  0  0  0  0  0
   17.0307   -4.7108   -2.0987 H   0  0  0  0  0  0  0  0  0  0  0  0
   16.6237   -6.2073   -1.1923 H   0  0  0  0  0  0  0  0  0  0  0  0
  1  2  1  0  0  0  0
  2  3  1  0  0  0  0
  2 24  1  0  0  0  0
  3  4  2  0  0  0  0
  3  5  1  0  0  0  0
  5  6  1  0  0  0  0
  6  7  1  0  0  0  0
  6 21  1  0  0  0  0
  6 24  1  0  0  0  0
  7  8  2  0  0  0  0
  7 20  1  0  0  0  0
  8  9  1  0  0  0  0
  9 10  2  0  0  0  0
 10 11  1  0  0  0  0
 11 12  1  0  0  0  0
 11 20  2  0  0  0  0
 12 13  2  0  0  0  0
 12 19  1  0  0  0  0
 13 14  1  0  0  0  0
 14 15  1  0  0  0  0
 14 16  2  0  0  0  0
 16 17  1  0  0  0  0
 17 18  1  0  0  0  0
 17 19  2  0  0  0  0
 21 22  1  0  0  0  0
 21 23  1  0  0  0  0
 22 23  1  0  0  0  0
 24 25  2  0  0  0  0
  1 26  1  0  0  0  0
  1 27  1  0  0  0  0
  1 28  1  0  0  0  0
  4 29  1  0  0  0  0
  5 30  1  0  0  0  0
  8 31  1  0  0  0  0
  9 32  1  0  0  0  0
 10 33  1  0  0  0  0
 13 34  1  0  0  0  0
 16 35  1  0  0  0  0
 19 36  1  0  0  0  0
 20 37  1  0  0  0  0
 21 38  1  0  0  0  0
 22 39  1  0  0  0  0
 22 40  1  0  0  0  0
 23 41  1  0  0  0  0
 23 42  1  0  0  0  0
M  END
> <r_user_dG.exp>
-10.733

$$$$
