CAT-13g
  -OEChem-05162309453D
 Structure written by MMmdl.
 51 54  0     1  0  0  0  0  0999 V2000
   11.6820   -2.1707    1.3298 C   0  0  0  0  0  0  0  0  0  0  0  0
   12.9759   -2.4302    0.6898 N   0  0  0  0  0  0  0  0  0  0  0  0
   14.1857   -2.5033    1.2745 C   0  0  0  0  0  0  0  0  0  0  0  0
   14.4361   -2.3451    2.5798 N   0  0  0  0  0  0  0  0  0  0  0  0
   15.1499   -2.7842    0.3899 N   0  0  0  0  0  0  0  0  0  0  0  0
   14.6008   -2.9822   -0.9565 C   0  0  1  0  0  0  0  0  0  0  0  0
   15.1276   -1.9196   -1.9457 C   0  0  0  0  0  0  0  0  0  0  0  0
   15.4911   -2.2559   -3.2691 C   0  0  0  0  0  0  0  0  0  0  0  0
   16.0026   -1.2814   -4.1316 C   0  0  0  0  0  0  0  0  0  0  0  0
   16.0562    0.0656   -3.7342 C   0  0  0  0  0  0  0  0  0  0  0  0
   15.6099    0.4645   -2.4549 C   0  0  0  0  0  0  0  0  0  0  0  0
   15.4769    1.9021   -2.1038 C   0  0  0  0  0  0  0  0  0  0  0  0
   15.1741    2.8578   -3.1038 C   0  0  0  0  0  0  0  0  0  0  0  0
   14.9081    4.2029   -2.7794 C   0  0  0  0  0  0  0  0  0  0  0  0
   14.9471    4.6239   -1.4406 C   0  0  0  0  0  0  0  0  0  0  0  0
   15.2835    3.7048   -0.4343 C   0  0  0  0  0  0  0  0  0  0  0  0
   15.3415    4.2337    1.2070 Cl  0  0  0  0  0  0  0  0  0  0  0  0
   15.5532    2.3613   -0.7659 C   0  0  0  0  0  0  0  0  0  0  0  0
   15.2059   -0.5552   -1.5583 C   0  0  0  0  0  0  0  0  0  0  0  0
   14.7887   -4.4804   -1.3903 C   0  0  0  0  0  0  0  0  0  0  0  0
   16.2630   -4.8725   -1.6061 C   0  0  0  0  0  0  0  0  0  0  0  0
   16.3888   -6.2770   -2.2013 C   0  0  0  0  0  0  0  0  0  0  0  0
   15.8131   -7.2996   -1.2236 C   0  0  0  0  0  0  0  0  0  0  0  0
   14.3456   -6.9746   -0.9188 C   0  0  0  0  0  0  0  0  0  0  0  0
   14.1673   -5.5282   -0.4194 C   0  0  0  0  0  0  0  0  0  0  0  0
   13.1177   -2.6879   -0.7028 C   0  0  0  0  0  0  0  0  0  0  0  0
   12.1860   -2.7189   -1.5139 O   0  0  0  0  0  0  0  0  0  0  0  0
   10.8880   -2.1768    0.5685 H   0  0  0  0  0  0  0  0  0  0  0  0
   11.4794   -2.9521    2.0770 H   0  0  0  0  0  0  0  0  0  0  0  0
   11.7081   -1.1885    1.8243 H   0  0  0  0  0  0  0  0  0  0  0  0
   15.3704   -2.4363    2.9243 H   0  0  0  0  0  0  0  0  0  0  0  0
   13.6888   -2.1357    3.2105 H   0  0  0  0  0  0  0  0  0  0  0  0
   15.3732   -3.2717   -3.6165 H   0  0  0  0  0  0  0  0  0  0  0  0
   16.3592   -1.5660   -5.1105 H   0  0  0  0  0  0  0  0  0  0  0  0
   16.4444    0.8067   -4.4172 H   0  0  0  0  0  0  0  0  0  0  0  0
   15.1464    2.5488   -4.1383 H   0  0  0  0  0  0  0  0  0  0  0  0
   14.6741    4.9105   -3.5611 H   0  0  0  0  0  0  0  0  0  0  0  0
   14.7197    5.6486   -1.1865 H   0  0  0  0  0  0  0  0  0  0  0  0
   15.8236    1.6677    0.0165 H   0  0  0  0  0  0  0  0  0  0  0  0
   14.9484   -0.2858   -0.5446 H   0  0  0  0  0  0  0  0  0  0  0  0
   14.2777   -4.5974   -2.3574 H   0  0  0  0  0  0  0  0  0  0  0  0
   16.7280   -4.1502   -2.2932 H   0  0  0  0  0  0  0  0  0  0  0  0
   16.7851   -4.8464   -0.6383 H   0  0  0  0  0  0  0  0  0  0  0  0
   15.8336   -6.3240   -3.1498 H   0  0  0  0  0  0  0  0  0  0  0  0
   17.4494   -6.5031   -2.3857 H   0  0  0  0  0  0  0  0  0  0  0  0
   15.8779   -8.3036   -1.6682 H   0  0  0  0  0  0  0  0  0  0  0  0
   16.3924   -7.2744   -0.2888 H   0  0  0  0  0  0  0  0  0  0  0  0
   13.7540   -7.1091   -1.8363 H   0  0  0  0  0  0  0  0  0  0  0  0
   13.9823   -7.6654   -0.1437 H   0  0  0  0  0  0  0  0  0  0  0  0
   14.6541   -5.4315    0.5623 H   0  0  0  0  0  0  0  0  0  0  0  0
   13.0919   -5.3203   -0.3175 H   0  0  0  0  0  0  0  0  0  0  0  0
  1  2  1  0  0  0  0
  2  3  1  0  0  0  0
  2 26  1  0  0  0  0
  3  4  1  0  0  0  0
  3  5  2  0  0  0  0
  5  6  1  0  0  0  0
  6  7  1  0  0  0  0
  6 20  1  0  0  0  0
  6 26  1  0  0  0  0
  7  8  2  0  0  0  0
  7 19  1  0  0  0  0
  8  9  1  0  0  0  0
  9 10  2  0  0  0  0
 10 11  1  0  0  0  0
 11 12  1  0  0  0  0
 11 19  2  0  0  0  0
 12 13  2  0  0  0  0
 12 18  1  0  0  0  0
 13 14  1  0  0  0  0
 14 15  2  0  0  0  0
 15 16  1  0  0  0  0
 16 17  1  0  0  0  0
 16 18  2  0  0  0  0
 20 21  1  0  0  0  0
 20 25  1  0  0  0  0
 21 22  1  0  0  0  0
 22 23  1  0  0  0  0
 23 24  1  0  0  0  0
 24 25  1  0  0  0  0
 26 27  2  0  0  0  0
  1 28  1  0  0  0  0
  1 29  1  0  0  0  0
  1 30  1  0  0  0  0
  4 31  1  0  0  0  0
  4 32  1  0  0  0  0
  8 33  1  0  0  0  0
  9 34  1  0  0  0  0
 10 35  1  0  0  0  0
 13 36  1  0  0  0  0
 14 37  1  0  0  0  0
 15 38  1  0  0  0  0
 18 39  1  0  0  0  0
 19 40  1  0  0  0  0
 20 41  1  0  0  0  0
 21 42  1  0  0  0  0
 21 43  1  0  0  0  0
 22 44  1  0  0  0  0
 22 45  1  0  0  0  0
 23 46  1  0  0  0  0
 23 47  1  0  0  0  0
 24 48  1  0  0  0  0
 24 49  1  0  0  0  0
 25 50  1  0  0  0  0
 25 51  1  0  0  0  0
M  END
> <r_user_dG.exp>
-9.093

$$$$
CAT-13g
  -OEChem-05162309453D
 Structure written by MMmdl.
 51 54  0     1  0  0  0  0  0999 V2000
   11.6820   -2.1707    1.3298 C   0  0  0  0  0  0  0  0  0  0  0  0
   12.9759   -2.4302    0.6898 N   0  0  0  0  0  0  0  0  0  0  0  0
   14.1857   -2.5033    1.2745 C   0  0  0  0  0  0  0  0  0  0  0  0
   14.4361   -2.3451    2.5798 N   0  0  0  0  0  0  0  0  0  0  0  0
   15.1499   -2.7842    0.3899 N   0  0  0  0  0  0  0  0  0  0  0  0
   14.6008   -2.9822   -0.9565 C   0  0  1  0  0  0  0  0  0  0  0  0
   15.1276   -1.9196   -1.9457 C   0  0  0  0  0  0  0  0  0  0  0  0
   15.4911   -2.2559   -3.2691 C   0  0  0  0  0  0  0  0  0  0  0  0
   16.0026   -1.2814   -4.1316 C   0  0  0  0  0  0  0  0  0  0  0  0
   16.0562    0.0656   -3.7342 C   0  0  0  0  0  0  0  0  0  0  0  0
   15.6099    0.4645   -2.4549 C   0  0  0  0  0  0  0  0  0  0  0  0
   15.4769    1.9021   -2.1038 C   0  0  0  0  0  0  0  0  0  0  0  0
   15.1741    2.8578   -3.1038 C   0  0  0  0  0  0  0  0  0  0  0  0
   14.9081    4.2029   -2.7794 C   0  0  0  0  0  0  0  0  0  0  0  0
   14.9471    4.6239   -1.4406 C   0  0  0  0  0  0  0  0  0  0  0  0
   15.2835    3.7048   -0.4343 C   0  0  0  0  0  0  0  0  0  0  0  0
   15.3415    4.2337    1.2070 Cl  0  0  0  0  0  0  0  0  0  0  0  0
   15.5532    2.3613   -0.7659 C   0  0  0  0  0  0  0  0  0  0  0  0
   15.2059   -0.5552   -1.5583 C   0  0  0  0  0  0  0  0  0  0  0  0
   14.7887   -4.4804   -1.3903 C   0  0  0  0  0  0  0  0  0  0  0  0
   16.2630   -4.8725   -1.6061 C   0  0  0  0  0  0  0  0  0  0  0  0
   16.3888   -6.2770   -2.2013 C   0  0  0  0  0  0  0  0  0  0  0  0
   15.8131   -7.2996   -1.2236 C   0  0  0  0  0  0  0  0  0  0  0  0
   14.3456   -6.9746   -0.9188 C   0  0  0  0  0  0  0  0  0  0  0  0
   14.1673   -5.5282   -0.4194 C   0  0  0  0  0  0  0  0  0  0  0  0
   13.1177   -2.6879   -0.7028 C   0  0  0  0  0  0  0  0  0  0  0  0
   12.1860   -2.7189   -1.5139 O   0  0  0  0  0  0  0  0  0  0  0  0
   10.8880   -2.1768    0.5685 H   0  0  0  0  0  0  0  0  0  0  0  0
   11.4794   -2.9521    2.0770 H   0  0  0  0  0  0  0  0  0  0  0  0
   11.7081   -1.1885    1.8243 H   0  0  0  0  0  0  0  0  0  0  0  0
   15.4063   -2.4618    2.7919 H   0  0  0  0  0  0  0  0  0  0  0  0
   16.1214   -2.8507    0.6175 H   0  0  0  0  0  0  0  0  0  0  0  0
   15.3732   -3.2717   -3.6165 H   0  0  0  0  0  0  0  0  0  0  0  0
   16.3592   -1.5660   -5.1105 H   0  0  0  0  0  0  0  0  0  0  0  0
   16.4444    0.8067   -4.4172 H   0  0  0  0  0  0  0  0  0  0  0  0
   15.1464    2.5488   -4.1383 H   0  0  0  0  0  0  0  0  0  0  0  0
   14.6741    4.9105   -3.5611 H   0  0  0  0  0  0  0  0  0  0  0  0
   14.7197    5.6486   -1.1865 H   0  0  0  0  0  0  0  0  0  0  0  0
   15.8236    1.6677    0.0165 H   0  0  0  0  0  0  0  0  0  0  0  0
   14.9484   -0.2858   -0.5446 H   0  0  0  0  0  0  0  0  0  0  0  0
   14.2777   -4.5974   -2.3574 H   0  0  0  0  0  0  0  0  0  0  0  0
   16.7280   -4.1502   -2.2932 H   0  0  0  0  0  0  0  0  0  0  0  0
   16.7851   -4.8464   -0.6383 H   0  0  0  0  0  0  0  0  0  0  0  0
   15.8336   -6.3240   -3.1498 H   0  0  0  0  0  0  0  0  0  0  0  0
   17.4494   -6.5031   -2.3857 H   0  0  0  0  0  0  0  0  0  0  0  0
   15.8779   -8.3036   -1.6682 H   0  0  0  0  0  0  0  0  0  0  0  0
   16.3924   -7.2744   -0.2888 H   0  0  0  0  0  0  0  0  0  0  0  0
   13.7540   -7.1091   -1.8363 H   0  0  0  0  0  0  0  0  0  0  0  0
   13.9823   -7.6654   -0.1437 H   0  0  0  0  0  0  0  0  0  0  0  0
   14.6541   -5.4315    0.5623 H   0  0  0  0  0  0  0  0  0  0  0  0
   13.0919   -5.3203   -0.3175 H   0  0  0  0  0  0  0  0  0  0  0  0
  1  2  1  0  0  0  0
  2  3  1  0  0  0  0
  2 26  1  0  0  0  0
  3  4  2  0  0  0  0
  3  5  1  0  0  0  0
  5  6  1  0  0  0  0
  6  7  1  0  0  0  0
  6 20  1  0  0  0  0
  6 26  1  0  0  0  0
  7  8  2  0  0  0  0
  7 19  1  0  0  0  0
  8  9  1  0  0  0  0
  9 10  2  0  0  0  0
 10 11  1  0  0  0  0
 11 12  1  0  0  0  0
 11 19  2  0  0  0  0
 12 13  2  0  0  0  0
 12 18  1  0  0  0  0
 13 14  1  0  0  0  0
 14 15  2  0  0  0  0
 15 16  1  0  0  0  0
 16 17  1  0  0  0  0
 16 18  2  0  0  0  0
 20 21  1  0  0  0  0
 20 25  1  0  0  0  0
 21 22  1  0  0  0  0
 22 23  1  0  0  0  0
 23 24  1  0  0  0  0
 24 25  1  0  0  0  0
 26 27  2  0  0  0  0
  1 28  1  0  0  0  0
  1 29  1  0  0  0  0
  1 30  1  0  0  0  0
  4 31  1  0  0  0  0
  5 32  1  0  0  0  0
  8 33  1  0  0  0  0
  9 34  1  0  0  0  0
 10 35  1  0  0  0  0
 13 36  1  0  0  0  0
 14 37  1  0  0  0  0
 15 38  1  0  0  0  0
 18 39  1  0  0  0  0
 19 40  1  0  0  0  0
 20 41  1  0  0  0  0
 21 42  1  0  0  0  0
 21 43  1  0  0  0  0
 22 44  1  0  0  0  0
 22 45  1  0  0  0  0
 23 46  1  0  0  0  0
 23 47  1  0  0  0  0
 24 48  1  0  0  0  0
 24 49  1  0  0  0  0
 25 50  1  0  0  0  0
 25 51  1  0  0  0  0
M  END
> <r_user_dG.exp>
-9.093

$$$$
