CAT-17b
  -OEChem-05162309453D
 Structure written by MMmdl.
 46 49  0     1  0  0  0  0  0999 V2000
   14.8884    4.7758    1.2264 C   0  0  0  0  0  0  0  0  0  0  0  0
   15.4957    3.5598    0.8392 O   0  0  0  0  0  0  0  0  0  0  0  0
   15.4238    3.2070   -0.4882 C   0  0  0  0  0  0  0  0  0  0  0  0
   15.1334    4.1078   -1.5370 C   0  0  0  0  0  0  0  0  0  0  0  0
   15.1104    3.6468   -2.8636 C   0  0  0  0  0  0  0  0  0  0  0  0
   15.3679    2.2912   -3.1537 C   0  0  0  0  0  0  0  0  0  0  0  0
   15.6266    1.3615   -2.1168 C   0  0  0  0  0  0  0  0  0  0  0  0
   15.8148   -0.0835   -2.3955 C   0  0  0  0  0  0  0  0  0  0  0  0
   16.3949   -0.4894   -3.6079 C   0  0  0  0  0  0  0  0  0  0  0  0
   16.5054   -1.8465   -3.9388 C   0  0  0  0  0  0  0  0  0  0  0  0
   16.0401   -2.8367   -3.0545 C   0  0  0  0  0  0  0  0  0  0  0  0
   15.4687   -2.4844   -1.8058 C   0  0  0  0  0  0  0  0  0  0  0  0
   14.8765   -3.4953   -0.7767 C   0  0  1  0  0  0  0  0  0  0  0  0
   15.0969   -5.0253   -0.8826 C   0  0  0  0  0  0  0  0  0  0  0  0
   14.8831   -5.8408   -2.1342 C   0  0  0  0  0  0  0  0  0  0  0  0
   16.2579   -5.7566   -1.5174 C   0  0  0  0  0  0  0  0  0  0  0  0
   15.2831   -3.1271    0.5768 N   0  0  0  0  0  0  0  0  0  0  0  0
   14.2456   -2.7938    1.3470 C   0  0  0  0  0  0  0  0  0  0  0  0
   14.3920   -2.4607    2.6335 N   0  0  0  0  0  0  0  0  0  0  0  0
   13.0879   -2.8500    0.6736 N   0  0  0  0  0  0  0  0  0  0  0  0
   11.7608   -2.5496    1.2227 C   0  0  0  0  0  0  0  0  0  0  0  0
   13.3577   -3.2550   -0.6672 C   0  0  0  0  0  0  0  0  0  0  0  0
   12.4975   -3.3906   -1.5423 O   0  0  0  0  0  0  0  0  0  0  0  0
   15.3879   -1.0935   -1.4999 C   0  0  0  0  0  0  0  0  0  0  0  0
   15.6597    1.8544   -0.7971 C   0  0  0  0  0  0  0  0  0  0  0  0
   15.0243    4.9262    2.3076 H   0  0  0  0  0  0  0  0  0  0  0  0
   15.3541    5.6086    0.6791 H   0  0  0  0  0  0  0  0  0  0  0  0
   13.8139    4.7393    0.9936 H   0  0  0  0  0  0  0  0  0  0  0  0
   14.9300    5.1460   -1.3198 H   0  0  0  0  0  0  0  0  0  0  0  0
   14.8940    4.3354   -3.6670 H   0  0  0  0  0  0  0  0  0  0  0  0
   15.3679    1.9571   -4.1807 H   0  0  0  0  0  0  0  0  0  0  0  0
   16.7621    0.2568   -4.2970 H   0  0  0  0  0  0  0  0  0  0  0  0
   16.9510   -2.1344   -4.8795 H   0  0  0  0  0  0  0  0  0  0  0  0
   16.1191   -3.8779   -3.3302 H   0  0  0  0  0  0  0  0  0  0  0  0
   14.7267   -5.5450    0.0135 H   0  0  0  0  0  0  0  0  0  0  0  0
   14.3161   -6.7822   -2.0867 H   0  0  0  0  0  0  0  0  0  0  0  0
   14.6777   -5.3369   -3.0902 H   0  0  0  0  0  0  0  0  0  0  0  0
   17.0541   -5.1908   -2.0232 H   0  0  0  0  0  0  0  0  0  0  0  0
   16.6924   -6.6361   -1.0198 H   0  0  0  0  0  0  0  0  0  0  0  0
   15.3019   -2.4559    3.0483 H   0  0  0  0  0  0  0  0  0  0  0  0
   13.5916   -2.2163    3.1809 H   0  0  0  0  0  0  0  0  0  0  0  0
   11.0006   -2.6809    0.4385 H   0  0  0  0  0  0  0  0  0  0  0  0
   11.5469   -3.2320    2.0585 H   0  0  0  0  0  0  0  0  0  0  0  0
   11.7399   -1.5105    1.5831 H   0  0  0  0  0  0  0  0  0  0  0  0
   14.9833   -0.7979   -0.5432 H   0  0  0  0  0  0  0  0  0  0  0  0
   15.8744    1.1677    0.0084 H   0  0  0  0  0  0  0  0  0  0  0  0
  1  2  1  0  0  0  0
  2  3  1  0  0  0  0
  3  4  2  0  0  0  0
  3 25  1  0  0  0  0
  4  5  1  0  0  0  0
  5  6  2  0  0  0  0
  6  7  1  0  0  0  0
  7  8  1  0  0  0  0
  7 25  2  0  0  0  0
  8  9  2  0  0  0  0
  8 24  1  0  0  0  0
  9 10  1  0  0  0  0
 10 11  2  0  0  0  0
 11 12  1  0  0  0  0
 12 13  1  0  0  0  0
 12 24  2  0  0  0  0
 13 14  1  0  0  0  0
 13 17  1  0  0  0  0
 13 22  1  0  0  0  0
 14 15  1  0  0  0  0
 14 16  1  0  0  0  0
 15 16  1  0  0  0  0
 17 18  2  0  0  0  0
 18 19  1  0  0  0  0
 18 20  1  0  0  0  0
 20 21  1  0  0  0  0
 20 22  1  0  0  0  0
 22 23  2  0  0  0  0
  1 26  1  0  0  0  0
  1 27  1  0  0  0  0
  1 28  1  0  0  0  0
  4 29  1  0  0  0  0
  5 30  1  0  0  0  0
  6 31  1  0  0  0  0
  9 32  1  0  0  0  0
 10 33  1  0  0  0  0
 11 34  1  0  0  0  0
 14 35  1  0  0  0  0
 15 36  1  0  0  0  0
 15 37  1  0  0  0  0
 16 38  1  0  0  0  0
 16 39  1  0  0  0  0
 19 40  1  0  0  0  0
 19 41  1  0  0  0  0
 21 42  1  0  0  0  0
 21 43  1  0  0  0  0
 21 44  1  0  0  0  0
 24 45  1  0  0  0  0
 25 46  1  0  0  0  0
M  END
> <r_user_dG.exp>
-10.023

$$$$
CAT-17b
  -OEChem-05162309453D
 Structure written by MMmdl.
 46 49  0     1  0  0  0  0  0999 V2000
   14.8884    4.7758    1.2264 C   0  0  0  0  0  0  0  0  0  0  0  0
   15.4957    3.5598    0.8392 O   0  0  0  0  0  0  0  0  0  0  0  0
   15.4238    3.2070   -0.4882 C   0  0  0  0  0  0  0  0  0  0  0  0
   15.1334    4.1078   -1.5370 C   0  0  0  0  0  0  0  0  0  0  0  0
   15.1104    3.6468   -2.8636 C   0  0  0  0  0  0  0  0  0  0  0  0
   15.3679    2.2912   -3.1537 C   0  0  0  0  0  0  0  0  0  0  0  0
   15.6266    1.3615   -2.1168 C   0  0  0  0  0  0  0  0  0  0  0  0
   15.8148   -0.0835   -2.3955 C   0  0  0  0  0  0  0  0  0  0  0  0
   16.3949   -0.4894   -3.6079 C   0  0  0  0  0  0  0  0  0  0  0  0
   16.5054   -1.8465   -3.9388 C   0  0  0  0  0  0  0  0  0  0  0  0
   16.0401   -2.8367   -3.0545 C   0  0  0  0  0  0  0  0  0  0  0  0
   15.4687   -2.4844   -1.8058 C   0  0  0  0  0  0  0  0  0  0  0  0
   14.8765   -3.4953   -0.7767 C   0  0  1  0  0  0  0  0  0  0  0  0
   15.0969   -5.0253   -0.8826 C   0  0  0  0  0  0  0  0  0  0  0  0
   14.8831   -5.8408   -2.1342 C   0  0  0  0  0  0  0  0  0  0  0  0
   16.2579   -5.7566   -1.5174 C   0  0  0  0  0  0  0  0  0  0  0  0
   15.2831   -3.1271    0.5768 N   0  0  0  0  0  0  0  0  0  0  0  0
   14.2456   -2.7938    1.3470 C   0  0  0  0  0  0  0  0  0  0  0  0
   14.3920   -2.4607    2.6335 N   0  0  0  0  0  0  0  0  0  0  0  0
   13.0879   -2.8500    0.6736 N   0  0  0  0  0  0  0  0  0  0  0  0
   11.7608   -2.5496    1.2227 C   0  0  0  0  0  0  0  0  0  0  0  0
   13.3577   -3.2550   -0.6672 C   0  0  0  0  0  0  0  0  0  0  0  0
   12.4975   -3.3906   -1.5423 O   0  0  0  0  0  0  0  0  0  0  0  0
   15.3879   -1.0935   -1.4999 C   0  0  0  0  0  0  0  0  0  0  0  0
   15.6597    1.8544   -0.7971 C   0  0  0  0  0  0  0  0  0  0  0  0
   15.0243    4.9262    2.3076 H   0  0  0  0  0  0  0  0  0  0  0  0
   15.3541    5.6086    0.6791 H   0  0  0  0  0  0  0  0  0  0  0  0
   13.8139    4.7393    0.9936 H   0  0  0  0  0  0  0  0  0  0  0  0
   14.9300    5.1460   -1.3198 H   0  0  0  0  0  0  0  0  0  0  0  0
   14.8940    4.3354   -3.6670 H   0  0  0  0  0  0  0  0  0  0  0  0
   15.3679    1.9571   -4.1807 H   0  0  0  0  0  0  0  0  0  0  0  0
   16.7621    0.2568   -4.2970 H   0  0  0  0  0  0  0  0  0  0  0  0
   16.9510   -2.1344   -4.8795 H   0  0  0  0  0  0  0  0  0  0  0  0
   16.1191   -3.8779   -3.3302 H   0  0  0  0  0  0  0  0  0  0  0  0
   14.7267   -5.5450    0.0135 H   0  0  0  0  0  0  0  0  0  0  0  0
   14.3161   -6.7822   -2.0867 H   0  0  0  0  0  0  0  0  0  0  0  0
   14.6777   -5.3369   -3.0902 H   0  0  0  0  0  0  0  0  0  0  0  0
   17.0541   -5.1908   -2.0232 H   0  0  0  0  0  0  0  0  0  0  0  0
   16.6924   -6.6361   -1.0198 H   0  0  0  0  0  0  0  0  0  0  0  0
   16.2324   -3.1250    0.8911 H   0  0  0  0  0  0  0  0  0  0  0  0
   13.5166   -2.2473    3.0672 H   0  0  0  0  0  0  0  0  0  0  0  0
   11.0006   -2.6809    0.4385 H   0  0  0  0  0  0  0  0  0  0  0  0
   11.5469   -3.2320    2.0585 H   0  0  0  0  0  0  0  0  0  0  0  0
   11.7399   -1.5105    1.5831 H   0  0  0  0  0  0  0  0  0  0  0  0
   14.9833   -0.7979   -0.5432 H   0  0  0  0  0  0  0  0  0  0  0  0
   15.8744    1.1677    0.0084 H   0  0  0  0  0  0  0  0  0  0  0  0
  1  2  1  0  0  0  0
  2  3  1  0  0  0  0
  3  4  2  0  0  0  0
  3 25  1  0  0  0  0
  4  5  1  0  0  0  0
  5  6  2  0  0  0  0
  6  7  1  0  0  0  0
  7  8  1  0  0  0  0
  7 25  2  0  0  0  0
  8  9  2  0  0  0  0
  8 24  1  0  0  0  0
  9 10  1  0  0  0  0
 10 11  2  0  0  0  0
 11 12  1  0  0  0  0
 12 13  1  0  0  0  0
 12 24  2  0  0  0  0
 13 14  1  0  0  0  0
 13 17  1  0  0  0  0
 13 22  1  0  0  0  0
 14 15  1  0  0  0  0
 14 16  1  0  0  0  0
 15 16  1  0  0  0  0
 17 18  1  0  0  0  0
 18 19  2  0  0  0  0
 18 20  1  0  0  0  0
 20 21  1  0  0  0  0
 20 22  1  0  0  0  0
 22 23  2  0  0  0  0
  1 26  1  0  0  0  0
  1 27  1  0  0  0  0
  1 28  1  0  0  0  0
  4 29  1  0  0  0  0
  5 30  1  0  0  0  0
  6 31  1  0  0  0  0
  9 32  1  0  0  0  0
 10 33  1  0  0  0  0
 11 34  1  0  0  0  0
 14 35  1  0  0  0  0
 15 36  1  0  0  0  0
 15 37  1  0  0  0  0
 16 38  1  0  0  0  0
 16 39  1  0  0  0  0
 17 40  1  0  0  0  0
 19 41  1  0  0  0  0
 21 42  1  0  0  0  0
 21 43  1  0  0  0  0
 21 44  1  0  0  0  0
 24 45  1  0  0  0  0
 25 46  1  0  0  0  0
M  END
> <r_user_dG.exp>
-10.023

$$$$
