CAT-13c
  -OEChem-05192314073D
 Structure written by MMmdl.
 44 46  0     1  0  0  0  0  0999 V2000
   14.8243   -5.5742   -0.0947 C   0  0  0  0  0  0  0  0  0  0  0  0
   15.4101   -4.5803   -1.1308 C   0  0  0  0  0  0  0  0  0  0  0  0
   15.0445   -5.1774   -2.5045 C   0  0  0  0  0  0  0  0  0  0  0  0
   14.9998   -3.0811   -0.8556 C   0  0  2  0  0  0  0  0  0  0  0  0
   15.6258   -1.9906   -1.7553 C   0  0  0  0  0  0  0  0  0  0  0  0
   16.4955   -2.2936   -2.8279 C   0  0  0  0  0  0  0  0  0  0  0  0
   16.9111   -1.2926   -3.7153 C   0  0  0  0  0  0  0  0  0  0  0  0
   16.5206    0.0385   -3.5029 C   0  0  0  0  0  0  0  0  0  0  0  0
   15.7885    0.4123   -2.3599 C   0  0  0  0  0  0  0  0  0  0  0  0
   15.4739    1.8324   -2.0914 C   0  0  0  0  0  0  0  0  0  0  0  0
   15.1414    2.7151   -3.1458 C   0  0  0  0  0  0  0  0  0  0  0  0
   14.7981    4.0583   -2.8917 C   0  0  0  0  0  0  0  0  0  0  0  0
   14.7943    4.5475   -1.5747 C   0  0  0  0  0  0  0  0  0  0  0  0
   15.1524    3.6968   -0.5157 C   0  0  0  0  0  0  0  0  0  0  0  0
   15.1667    4.3072    1.0977 Cl  0  0  0  0  0  0  0  0  0  0  0  0
   15.4905    2.3531   -0.7758 C   0  0  0  0  0  0  0  0  0  0  0  0
   15.3469   -0.6200   -1.5014 C   0  0  0  0  0  0  0  0  0  0  0  0
   15.3359   -2.7757    0.5285 N   0  0  0  0  0  0  0  0  0  0  0  0
   14.2637   -2.5233    1.2771 C   0  0  0  0  0  0  0  0  0  0  0  0
   14.3552   -2.2987    2.5928 N   0  0  0  0  0  0  0  0  0  0  0  0
   13.1359   -2.5504    0.5500 N   0  0  0  0  0  0  0  0  0  0  0  0
   11.7814   -2.2577    1.0358 C   0  0  0  0  0  0  0  0  0  0  0  0
   13.4689   -2.8905   -0.7989 C   0  0  0  0  0  0  0  0  0  0  0  0
   12.6469   -3.0008   -1.7148 O   0  0  0  0  0  0  0  0  0  0  0  0
   15.0444   -5.2169    0.9221 H   0  0  0  0  0  0  0  0  0  0  0  0
   13.7350   -5.6455   -0.2304 H   0  0  0  0  0  0  0  0  0  0  0  0
   15.2777   -6.5657   -0.2409 H   0  0  0  0  0  0  0  0  0  0  0  0
   16.5051   -4.6293   -1.0388 H   0  0  0  0  0  0  0  0  0  0  0  0
   15.4283   -4.5248   -3.3025 H   0  0  0  0  0  0  0  0  0  0  0  0
   15.4934   -6.1770   -2.6009 H   0  0  0  0  0  0  0  0  0  0  0  0
   13.9507   -5.2568   -2.5903 H   0  0  0  0  0  0  0  0  0  0  0  0
   16.8430   -3.3070   -2.9645 H   0  0  0  0  0  0  0  0  0  0  0  0
   17.5317   -1.5451   -4.5624 H   0  0  0  0  0  0  0  0  0  0  0  0
   16.7869    0.7909   -4.2305 H   0  0  0  0  0  0  0  0  0  0  0  0
   15.1508    2.3533   -4.1634 H   0  0  0  0  0  0  0  0  0  0  0  0
   14.5376    4.7124   -3.7106 H   0  0  0  0  0  0  0  0  0  0  0  0
   14.5174    5.5726   -1.3774 H   0  0  0  0  0  0  0  0  0  0  0  0
   15.7676    1.7085    0.0452 H   0  0  0  0  0  0  0  0  0  0  0  0
   14.7776   -0.3583   -0.6217 H   0  0  0  0  0  0  0  0  0  0  0  0
   15.2483   -2.3175    3.0423 H   0  0  0  0  0  0  0  0  0  0  0  0
   13.5305   -2.1120    3.1267 H   0  0  0  0  0  0  0  0  0  0  0  0
   11.0640   -2.3622    0.2085 H   0  0  0  0  0  0  0  0  0  0  0  0
   11.5198   -2.9623    1.8390 H   0  0  0  0  0  0  0  0  0  0  0  0
   11.7456   -1.2292    1.4242 H   0  0  0  0  0  0  0  0  0  0  0  0
  1  2  1  0  0  0  0
  2  3  1  0  0  0  0
  2  4  1  0  0  0  0
  4  5  1  0  0  0  0
  4 18  1  0  0  0  0
  4 23  1  0  0  0  0
  5  6  2  0  0  0  0
  5 17  1  0  0  0  0
  6  7  1  0  0  0  0
  7  8  2  0  0  0  0
  8  9  1  0  0  0  0
  9 10  1  0  0  0  0
  9 17  2  0  0  0  0
 10 11  2  0  0  0  0
 10 16  1  0  0  0  0
 11 12  1  0  0  0  0
 12 13  2  0  0  0  0
 13 14  1  0  0  0  0
 14 15  1  0  0  0  0
 14 16  2  0  0  0  0
 18 19  2  0  0  0  0
 19 20  1  0  0  0  0
 19 21  1  0  0  0  0
 21 22  1  0  0  0  0
 21 23  1  0  0  0  0
 23 24  2  0  0  0  0
  1 25  1  0  0  0  0
  1 26  1  0  0  0  0
  1 27  1  0  0  0  0
  2 28  1  0  0  0  0
  3 29  1  0  0  0  0
  3 30  1  0  0  0  0
  3 31  1  0  0  0  0
  6 32  1  0  0  0  0
  7 33  1  0  0  0  0
  8 34  1  0  0  0  0
 11 35  1  0  0  0  0
 12 36  1  0  0  0  0
 13 37  1  0  0  0  0
 16 38  1  0  0  0  0
 17 39  1  0  0  0  0
 20 40  1  0  0  0  0
 20 41  1  0  0  0  0
 22 42  1  0  0  0  0
 22 43  1  0  0  0  0
 22 44  1  0  0  0  0
M  END
> <r_user_dG.exp>
-9.323

$$$$
CAT-13c
  -OEChem-05192314073D
 Structure written by MMmdl.
 44 46  0     1  0  0  0  0  0999 V2000
   14.8243   -5.5742   -0.0947 C   0  0  0  0  0  0  0  0  0  0  0  0
   15.4101   -4.5803   -1.1308 C   0  0  0  0  0  0  0  0  0  0  0  0
   15.0445   -5.1774   -2.5045 C   0  0  0  0  0  0  0  0  0  0  0  0
   14.9998   -3.0811   -0.8556 C   0  0  2  0  0  0  0  0  0  0  0  0
   15.6258   -1.9906   -1.7553 C   0  0  0  0  0  0  0  0  0  0  0  0
   16.4955   -2.2936   -2.8279 C   0  0  0  0  0  0  0  0  0  0  0  0
   16.9111   -1.2926   -3.7153 C   0  0  0  0  0  0  0  0  0  0  0  0
   16.5206    0.0385   -3.5029 C   0  0  0  0  0  0  0  0  0  0  0  0
   15.7885    0.4123   -2.3599 C   0  0  0  0  0  0  0  0  0  0  0  0
   15.4739    1.8324   -2.0914 C   0  0  0  0  0  0  0  0  0  0  0  0
   15.1414    2.7151   -3.1458 C   0  0  0  0  0  0  0  0  0  0  0  0
   14.7981    4.0583   -2.8917 C   0  0  0  0  0  0  0  0  0  0  0  0
   14.7943    4.5475   -1.5747 C   0  0  0  0  0  0  0  0  0  0  0  0
   15.1524    3.6968   -0.5157 C   0  0  0  0  0  0  0  0  0  0  0  0
   15.1667    4.3072    1.0977 Cl  0  0  0  0  0  0  0  0  0  0  0  0
   15.4905    2.3531   -0.7758 C   0  0  0  0  0  0  0  0  0  0  0  0
   15.3469   -0.6200   -1.5014 C   0  0  0  0  0  0  0  0  0  0  0  0
   15.3359   -2.7757    0.5285 N   0  0  0  0  0  0  0  0  0  0  0  0
   14.2637   -2.5233    1.2771 C   0  0  0  0  0  0  0  0  0  0  0  0
   14.3552   -2.2987    2.5928 N   0  0  0  0  0  0  0  0  0  0  0  0
   13.1359   -2.5504    0.5500 N   0  0  0  0  0  0  0  0  0  0  0  0
   11.7814   -2.2577    1.0358 C   0  0  0  0  0  0  0  0  0  0  0  0
   13.4689   -2.8905   -0.7989 C   0  0  0  0  0  0  0  0  0  0  0  0
   12.6469   -3.0008   -1.7148 O   0  0  0  0  0  0  0  0  0  0  0  0
   15.0444   -5.2169    0.9221 H   0  0  0  0  0  0  0  0  0  0  0  0
   13.7350   -5.6455   -0.2304 H   0  0  0  0  0  0  0  0  0  0  0  0
   15.2777   -6.5657   -0.2409 H   0  0  0  0  0  0  0  0  0  0  0  0
   16.5051   -4.6293   -1.0388 H   0  0  0  0  0  0  0  0  0  0  0  0
   15.4283   -4.5248   -3.3025 H   0  0  0  0  0  0  0  0  0  0  0  0
   15.4934   -6.1770   -2.6009 H   0  0  0  0  0  0  0  0  0  0  0  0
   13.9507   -5.2568   -2.5903 H   0  0  0  0  0  0  0  0  0  0  0  0
   16.8430   -3.3070   -2.9645 H   0  0  0  0  0  0  0  0  0  0  0  0
   17.5317   -1.5451   -4.5624 H   0  0  0  0  0  0  0  0  0  0  0  0
   16.7869    0.7909   -4.2305 H   0  0  0  0  0  0  0  0  0  0  0  0
   15.1508    2.3533   -4.1634 H   0  0  0  0  0  0  0  0  0  0  0  0
   14.5376    4.7124   -3.7106 H   0  0  0  0  0  0  0  0  0  0  0  0
   14.5174    5.5726   -1.3774 H   0  0  0  0  0  0  0  0  0  0  0  0
   15.7676    1.7085    0.0452 H   0  0  0  0  0  0  0  0  0  0  0  0
   14.7776   -0.3583   -0.6217 H   0  0  0  0  0  0  0  0  0  0  0  0
   16.2722   -2.7575    0.8793 H   0  0  0  0  0  0  0  0  0  0  0  0
   13.4594   -2.1443    3.0096 H   0  0  0  0  0  0  0  0  0  0  0  0
   11.0640   -2.3622    0.2085 H   0  0  0  0  0  0  0  0  0  0  0  0
   11.5198   -2.9623    1.8390 H   0  0  0  0  0  0  0  0  0  0  0  0
   11.7456   -1.2292    1.4242 H   0  0  0  0  0  0  0  0  0  0  0  0
  1  2  1  0  0  0  0
  2  3  1  0  0  0  0
  2  4  1  0  0  0  0
  4  5  1  0  0  0  0
  4 18  1  0  0  0  0
  4 23  1  0  0  0  0
  5  6  2  0  0  0  0
  5 17  1  0  0  0  0
  6  7  1  0  0  0  0
  7  8  2  0  0  0  0
  8  9  1  0  0  0  0
  9 10  1  0  0  0  0
  9 17  2  0  0  0  0
 10 11  2  0  0  0  0
 10 16  1  0  0  0  0
 11 12  1  0  0  0  0
 12 13  2  0  0  0  0
 13 14  1  0  0  0  0
 14 15  1  0  0  0  0
 14 16  2  0  0  0  0
 18 19  1  0  0  0  0
 19 20  2  0  0  0  0
 19 21  1  0  0  0  0
 21 22  1  0  0  0  0
 21 23  1  0  0  0  0
 23 24  2  0  0  0  0
  1 25  1  0  0  0  0
  1 26  1  0  0  0  0
  1 27  1  0  0  0  0
  2 28  1  0  0  0  0
  3 29  1  0  0  0  0
  3 30  1  0  0  0  0
  3 31  1  0  0  0  0
  6 32  1  0  0  0  0
  7 33  1  0  0  0  0
  8 34  1  0  0  0  0
 11 35  1  0  0  0  0
 12 36  1  0  0  0  0
 13 37  1  0  0  0  0
 16 38  1  0  0  0  0
 17 39  1  0  0  0  0
 18 40  1  0  0  0  0
 20 41  1  0  0  0  0
 22 42  1  0  0  0  0
 22 43  1  0  0  0  0
 22 44  1  0  0  0  0
M  END
> <r_user_dG.exp>
-9.323

$$$$
