CAT-4b
  -OEChem-05192314073D
 Structure written by MMmdl.
 49 52  0     1  0  0  0  0  0999 V2000
   14.8899    4.8693    1.3571 C   0  0  0  0  0  0  0  0  0  0  0  0
   15.4910    3.6586    0.9338 O   0  0  0  0  0  0  0  0  0  0  0  0
   15.4559    3.3612   -0.4093 C   0  0  0  0  0  0  0  0  0  0  0  0
   15.2031    4.3048   -1.4284 C   0  0  0  0  0  0  0  0  0  0  0  0
   15.2285    3.9017   -2.7752 C   0  0  0  0  0  0  0  0  0  0  0  0
   15.4668    2.5539   -3.1146 C   0  0  0  0  0  0  0  0  0  0  0  0
   15.6673    1.5796   -2.1106 C   0  0  0  0  0  0  0  0  0  0  0  0
   15.7986    0.1373   -2.4299 C   0  0  0  0  0  0  0  0  0  0  0  0
   16.3443   -0.3086   -3.6508 C   0  0  0  0  0  0  0  0  0  0  0  0
   16.4510   -1.6809   -3.9432 C   0  0  0  0  0  0  0  0  0  0  0  0
   15.9729   -2.6431   -3.0346 C   0  0  0  0  0  0  0  0  0  0  0  0
   15.3929   -2.2324   -1.8118 C   0  0  0  0  0  0  0  0  0  0  0  0
   14.8068   -3.2363   -0.8026 C   0  0  1  0  0  0  0  0  0  0  0  0
   15.1478   -4.7199   -1.0797 C   0  0  0  0  0  0  0  0  0  0  0  0
   16.3640   -5.2427   -0.5907 C   0  0  0  0  0  0  0  0  0  0  0  0
   16.7306   -6.5834   -0.7927 C   0  0  0  0  0  0  0  0  0  0  0  0
   15.8591   -7.4486   -1.4649 C   0  0  0  0  0  0  0  0  0  0  0  0
   14.6428   -6.9571   -1.9662 C   0  0  0  0  0  0  0  0  0  0  0  0
   14.2970   -5.6023   -1.7883 C   0  0  0  0  0  0  0  0  0  0  0  0
   15.2301   -2.9023    0.5590 N   0  0  0  0  0  0  0  0  0  0  0  0
   14.2089   -2.6079    1.3610 C   0  0  0  0  0  0  0  0  0  0  0  0
   14.3832   -2.3403    2.6584 N   0  0  0  0  0  0  0  0  0  0  0  0
   13.0407   -2.6284    0.7035 N   0  0  0  0  0  0  0  0  0  0  0  0
   11.7206   -2.2789    1.2434 C   0  0  0  0  0  0  0  0  0  0  0  0
   13.2873   -2.9901   -0.6544 C   0  0  0  0  0  0  0  0  0  0  0  0
   12.4095   -3.0491   -1.5239 O   0  0  0  0  0  0  0  0  0  0  0  0
   15.3375   -0.8450   -1.5242 C   0  0  0  0  0  0  0  0  0  0  0  0
   15.6869    2.0224   -0.7698 C   0  0  0  0  0  0  0  0  0  0  0  0
   14.9955    4.9701    2.4474 H   0  0  0  0  0  0  0  0  0  0  0  0
   15.3847    5.7173    0.8610 H   0  0  0  0  0  0  0  0  0  0  0  0
   13.8225    4.8611    1.0914 H   0  0  0  0  0  0  0  0  0  0  0  0
   14.9909    5.3328   -1.1744 H   0  0  0  0  0  0  0  0  0  0  0  0
   15.0642    4.6299   -3.5557 H   0  0  0  0  0  0  0  0  0  0  0  0
   15.4964    2.2627   -4.1542 H   0  0  0  0  0  0  0  0  0  0  0  0
   16.6866    0.4160   -4.3747 H   0  0  0  0  0  0  0  0  0  0  0  0
   16.9030   -1.9978   -4.8715 H   0  0  0  0  0  0  0  0  0  0  0  0
   16.0488   -3.6942   -3.2707 H   0  0  0  0  0  0  0  0  0  0  0  0
   17.0323   -4.5929   -0.0452 H   0  0  0  0  0  0  0  0  0  0  0  0
   17.6815   -6.9456   -0.4307 H   0  0  0  0  0  0  0  0  0  0  0  0
   16.1207   -8.4881   -1.5972 H   0  0  0  0  0  0  0  0  0  0  0  0
   13.9698   -7.6197   -2.4900 H   0  0  0  0  0  0  0  0  0  0  0  0
   13.3692   -5.2318   -2.1986 H   0  0  0  0  0  0  0  0  0  0  0  0
   15.3017   -2.3577    3.0535 H   0  0  0  0  0  0  0  0  0  0  0  0
   13.5952   -2.1226    3.2343 H   0  0  0  0  0  0  0  0  0  0  0  0
   10.9598   -2.3961    0.4577 H   0  0  0  0  0  0  0  0  0  0  0  0
   11.4819   -2.9435    2.0868 H   0  0  0  0  0  0  0  0  0  0  0  0
   11.7312   -1.2352    1.5906 H   0  0  0  0  0  0  0  0  0  0  0  0
   14.9274   -0.5268   -0.5771 H   0  0  0  0  0  0  0  0  0  0  0  0
   15.8876    1.3031    0.0104 H   0  0  0  0  0  0  0  0  0  0  0  0
  1  2  1  0  0  0  0
  2  3  1  0  0  0  0
  3  4  2  0  0  0  0
  3 28  1  0  0  0  0
  4  5  1  0  0  0  0
  5  6  2  0  0  0  0
  6  7  1  0  0  0  0
  7  8  1  0  0  0  0
  7 28  2  0  0  0  0
  8  9  2  0  0  0  0
  8 27  1  0  0  0  0
  9 10  1  0  0  0  0
 10 11  2  0  0  0  0
 11 12  1  0  0  0  0
 12 13  1  0  0  0  0
 12 27  2  0  0  0  0
 13 14  1  0  0  0  0
 13 20  1  0  0  0  0
 13 25  1  0  0  0  0
 14 15  2  0  0  0  0
 14 19  1  0  0  0  0
 15 16  1  0  0  0  0
 16 17  2  0  0  0  0
 17 18  1  0  0  0  0
 18 19  2  0  0  0  0
 20 21  2  0  0  0  0
 21 22  1  0  0  0  0
 21 23  1  0  0  0  0
 23 24  1  0  0  0  0
 23 25  1  0  0  0  0
 25 26  2  0  0  0  0
  1 29  1  0  0  0  0
  1 30  1  0  0  0  0
  1 31  1  0  0  0  0
  4 32  1  0  0  0  0
  5 33  1  0  0  0  0
  6 34  1  0  0  0  0
  9 35  1  0  0  0  0
 10 36  1  0  0  0  0
 11 37  1  0  0  0  0
 15 38  1  0  0  0  0
 16 39  1  0  0  0  0
 17 40  1  0  0  0  0
 18 41  1  0  0  0  0
 19 42  1  0  0  0  0
 22 43  1  0  0  0  0
 22 44  1  0  0  0  0
 24 45  1  0  0  0  0
 24 46  1  0  0  0  0
 24 47  1  0  0  0  0
 27 48  1  0  0  0  0
 28 49  1  0  0  0  0
M  END
> <r_user_dG.exp>
-9.633

$$$$
CAT-4b
  -OEChem-05192314073D
 Structure written by MMmdl.
 49 52  0     1  0  0  0  0  0999 V2000
   14.8899    4.8693    1.3571 C   0  0  0  0  0  0  0  0  0  0  0  0
   15.4910    3.6586    0.9338 O   0  0  0  0  0  0  0  0  0  0  0  0
   15.4559    3.3612   -0.4093 C   0  0  0  0  0  0  0  0  0  0  0  0
   15.2031    4.3048   -1.4284 C   0  0  0  0  0  0  0  0  0  0  0  0
   15.2285    3.9017   -2.7752 C   0  0  0  0  0  0  0  0  0  0  0  0
   15.4668    2.5539   -3.1146 C   0  0  0  0  0  0  0  0  0  0  0  0
   15.6673    1.5796   -2.1106 C   0  0  0  0  0  0  0  0  0  0  0  0
   15.7986    0.1373   -2.4299 C   0  0  0  0  0  0  0  0  0  0  0  0
   16.3443   -0.3086   -3.6508 C   0  0  0  0  0  0  0  0  0  0  0  0
   16.4510   -1.6809   -3.9432 C   0  0  0  0  0  0  0  0  0  0  0  0
   15.9729   -2.6431   -3.0346 C   0  0  0  0  0  0  0  0  0  0  0  0
   15.3929   -2.2324   -1.8118 C   0  0  0  0  0  0  0  0  0  0  0  0
   14.8068   -3.2363   -0.8026 C   0  0  1  0  0  0  0  0  0  0  0  0
   15.1478   -4.7199   -1.0797 C   0  0  0  0  0  0  0  0  0  0  0  0
   16.3640   -5.2427   -0.5907 C   0  0  0  0  0  0  0  0  0  0  0  0
   16.7306   -6.5834   -0.7927 C   0  0  0  0  0  0  0  0  0  0  0  0
   15.8591   -7.4486   -1.4649 C   0  0  0  0  0  0  0  0  0  0  0  0
   14.6428   -6.9571   -1.9662 C   0  0  0  0  0  0  0  0  0  0  0  0
   14.2970   -5.6023   -1.7883 C   0  0  0  0  0  0  0  0  0  0  0  0
   15.2301   -2.9023    0.5590 N   0  0  0  0  0  0  0  0  0  0  0  0
   14.2089   -2.6079    1.3610 C   0  0  0  0  0  0  0  0  0  0  0  0
   14.3832   -2.3403    2.6584 N   0  0  0  0  0  0  0  0  0  0  0  0
   13.0407   -2.6284    0.7035 N   0  0  0  0  0  0  0  0  0  0  0  0
   11.7206   -2.2789    1.2434 C   0  0  0  0  0  0  0  0  0  0  0  0
   13.2873   -2.9901   -0.6544 C   0  0  0  0  0  0  0  0  0  0  0  0
   12.4095   -3.0491   -1.5239 O   0  0  0  0  0  0  0  0  0  0  0  0
   15.3375   -0.8450   -1.5242 C   0  0  0  0  0  0  0  0  0  0  0  0
   15.6869    2.0224   -0.7698 C   0  0  0  0  0  0  0  0  0  0  0  0
   14.9955    4.9701    2.4474 H   0  0  0  0  0  0  0  0  0  0  0  0
   15.3847    5.7173    0.8610 H   0  0  0  0  0  0  0  0  0  0  0  0
   13.8225    4.8611    1.0914 H   0  0  0  0  0  0  0  0  0  0  0  0
   14.9909    5.3328   -1.1744 H   0  0  0  0  0  0  0  0  0  0  0  0
   15.0642    4.6299   -3.5557 H   0  0  0  0  0  0  0  0  0  0  0  0
   15.4964    2.2627   -4.1542 H   0  0  0  0  0  0  0  0  0  0  0  0
   16.6866    0.4160   -4.3747 H   0  0  0  0  0  0  0  0  0  0  0  0
   16.9030   -1.9978   -4.8715 H   0  0  0  0  0  0  0  0  0  0  0  0
   16.0488   -3.6942   -3.2707 H   0  0  0  0  0  0  0  0  0  0  0  0
   17.0323   -4.5929   -0.0452 H   0  0  0  0  0  0  0  0  0  0  0  0
   17.6815   -6.9456   -0.4307 H   0  0  0  0  0  0  0  0  0  0  0  0
   16.1207   -8.4881   -1.5972 H   0  0  0  0  0  0  0  0  0  0  0  0
   13.9698   -7.6197   -2.4900 H   0  0  0  0  0  0  0  0  0  0  0  0
   13.3692   -5.2318   -2.1986 H   0  0  0  0  0  0  0  0  0  0  0  0
   16.1852   -2.8960    0.8551 H   0  0  0  0  0  0  0  0  0  0  0  0
   13.5178   -2.1461    3.1204 H   0  0  0  0  0  0  0  0  0  0  0  0
   10.9598   -2.3961    0.4577 H   0  0  0  0  0  0  0  0  0  0  0  0
   11.4819   -2.9435    2.0868 H   0  0  0  0  0  0  0  0  0  0  0  0
   11.7312   -1.2352    1.5906 H   0  0  0  0  0  0  0  0  0  0  0  0
   14.9274   -0.5268   -0.5771 H   0  0  0  0  0  0  0  0  0  0  0  0
   15.8876    1.3031    0.0104 H   0  0  0  0  0  0  0  0  0  0  0  0
  1  2  1  0  0  0  0
  2  3  1  0  0  0  0
  3  4  2  0  0  0  0
  3 28  1  0  0  0  0
  4  5  1  0  0  0  0
  5  6  2  0  0  0  0
  6  7  1  0  0  0  0
  7  8  1  0  0  0  0
  7 28  2  0  0  0  0
  8  9  2  0  0  0  0
  8 27  1  0  0  0  0
  9 10  1  0  0  0  0
 10 11  2  0  0  0  0
 11 12  1  0  0  0  0
 12 13  1  0  0  0  0
 12 27  2  0  0  0  0
 13 14  1  0  0  0  0
 13 20  1  0  0  0  0
 13 25  1  0  0  0  0
 14 15  2  0  0  0  0
 14 19  1  0  0  0  0
 15 16  1  0  0  0  0
 16 17  2  0  0  0  0
 17 18  1  0  0  0  0
 18 19  2  0  0  0  0
 20 21  1  0  0  0  0
 21 22  2  0  0  0  0
 21 23  1  0  0  0  0
 23 24  1  0  0  0  0
 23 25  1  0  0  0  0
 25 26  2  0  0  0  0
  1 29  1  0  0  0  0
  1 30  1  0  0  0  0
  1 31  1  0  0  0  0
  4 32  1  0  0  0  0
  5 33  1  0  0  0  0
  6 34  1  0  0  0  0
  9 35  1  0  0  0  0
 10 36  1  0  0  0  0
 11 37  1  0  0  0  0
 15 38  1  0  0  0  0
 16 39  1  0  0  0  0
 17 40  1  0  0  0  0
 18 41  1  0  0  0  0
 19 42  1  0  0  0  0
 20 43  1  0  0  0  0
 22 44  1  0  0  0  0
 24 45  1  0  0  0  0
 24 46  1  0  0  0  0
 24 47  1  0  0  0  0
 27 48  1  0  0  0  0
 28 49  1  0  0  0  0
M  END
> <r_user_dG.exp>
-9.633

$$$$
