CAT-13d
  -OEChem-05192314073D
 Structure written by MMmdl.
 42 45  0     1  0  0  0  0  0999 V2000
   11.7860   -2.3271    1.0538 C   0  0  0  0  0  0  0  0  0  0  0  0
   13.1444   -2.5995    0.5661 N   0  0  0  0  0  0  0  0  0  0  0  0
   14.2729   -2.5333    1.2874 C   0  0  0  0  0  0  0  0  0  0  0  0
   14.3652   -2.2938    2.6004 N   0  0  0  0  0  0  0  0  0  0  0  0
   15.3469   -2.7616    0.5345 N   0  0  0  0  0  0  0  0  0  0  0  0
   15.0192   -3.0683   -0.8497 C   0  0  1  0  0  0  0  0  0  0  0  0
   15.5634   -1.9948   -1.8100 C   0  0  0  0  0  0  0  0  0  0  0  0
   16.1894   -2.3496   -3.0284 C   0  0  0  0  0  0  0  0  0  0  0  0
   16.6159   -1.3547   -3.9204 C   0  0  0  0  0  0  0  0  0  0  0  0
   16.4013    0.0015   -3.6209 C   0  0  0  0  0  0  0  0  0  0  0  0
   15.8080    0.4004   -2.4044 C   0  0  0  0  0  0  0  0  0  0  0  0
   15.5587    1.8326   -2.1090 C   0  0  0  0  0  0  0  0  0  0  0  0
   15.2649    2.7464   -3.1489 C   0  0  0  0  0  0  0  0  0  0  0  0
   14.9444    4.0910   -2.8732 C   0  0  0  0  0  0  0  0  0  0  0  0
   14.9243    4.5522   -1.5465 C   0  0  0  0  0  0  0  0  0  0  0  0
   15.2486    3.6732   -0.5009 C   0  0  0  0  0  0  0  0  0  0  0  0
   15.2426    4.2511    1.1245 Cl  0  0  0  0  0  0  0  0  0  0  0  0
   15.5647    2.3288   -0.7836 C   0  0  0  0  0  0  0  0  0  0  0  0
   15.4125   -0.6168   -1.5039 C   0  0  0  0  0  0  0  0  0  0  0  0
   15.5900   -4.4689   -1.1332 C   0  0  0  0  0  0  0  0  0  0  0  0
   15.3463   -5.2332   -2.4204 C   0  0  0  0  0  0  0  0  0  0  0  0
   16.7355   -4.7539   -2.0801 C   0  0  0  0  0  0  0  0  0  0  0  0
   13.4812   -2.9579   -0.7768 C   0  0  0  0  0  0  0  0  0  0  0  0
   12.6571   -3.1079   -1.6844 O   0  0  0  0  0  0  0  0  0  0  0  0
   11.0669   -2.4632    0.2326 H   0  0  0  0  0  0  0  0  0  0  0  0
   11.5441   -3.0217    1.8717 H   0  0  0  0  0  0  0  0  0  0  0  0
   11.7296   -1.2923    1.4227 H   0  0  0  0  0  0  0  0  0  0  0  0
   15.2609   -2.2825    3.0448 H   0  0  0  0  0  0  0  0  0  0  0  0
   13.5385   -2.1261    3.1374 H   0  0  0  0  0  0  0  0  0  0  0  0
   16.3394   -3.3909   -3.2726 H   0  0  0  0  0  0  0  0  0  0  0  0
   17.1105   -1.6316   -4.8397 H   0  0  0  0  0  0  0  0  0  0  0  0
   16.6967    0.7542   -4.3369 H   0  0  0  0  0  0  0  0  0  0  0  0
   15.2867    2.4068   -4.1739 H   0  0  0  0  0  0  0  0  0  0  0  0
   14.7140    4.7675   -3.6829 H   0  0  0  0  0  0  0  0  0  0  0  0
   14.6608    5.5774   -1.3320 H   0  0  0  0  0  0  0  0  0  0  0  0
   15.8169    1.6632    0.0287 H   0  0  0  0  0  0  0  0  0  0  0  0
   14.9823   -0.3361   -0.5539 H   0  0  0  0  0  0  0  0  0  0  0  0
   15.5945   -5.1144   -0.2425 H   0  0  0  0  0  0  0  0  0  0  0  0
   15.1114   -6.3073   -2.3861 H   0  0  0  0  0  0  0  0  0  0  0  0
   14.7879   -4.7618   -3.2426 H   0  0  0  0  0  0  0  0  0  0  0  0
   17.1898   -3.9336   -2.6552 H   0  0  0  0  0  0  0  0  0  0  0  0
   17.5132   -5.4791   -1.7988 H   0  0  0  0  0  0  0  0  0  0  0  0
  1  2  1  0  0  0  0
  2  3  1  0  0  0  0
  2 23  1  0  0  0  0
  3  4  1  0  0  0  0
  3  5  2  0  0  0  0
  5  6  1  0  0  0  0
  6  7  1  0  0  0  0
  6 20  1  0  0  0  0
  6 23  1  0  0  0  0
  7  8  2  0  0  0  0
  7 19  1  0  0  0  0
  8  9  1  0  0  0  0
  9 10  2  0  0  0  0
 10 11  1  0  0  0  0
 11 12  1  0  0  0  0
 11 19  2  0  0  0  0
 12 13  2  0  0  0  0
 12 18  1  0  0  0  0
 13 14  1  0  0  0  0
 14 15  2  0  0  0  0
 15 16  1  0  0  0  0
 16 18  2  0  0  0  0
 16 17  1  0  0  0  0
 20 21  1  0  0  0  0
 20 22  1  0  0  0  0
 21 22  1  0  0  0  0
 23 24  2  0  0  0  0
  1 25  1  0  0  0  0
  1 26  1  0  0  0  0
  1 27  1  0  0  0  0
  4 28  1  0  0  0  0
  4 29  1  0  0  0  0
  8 30  1  0  0  0  0
  9 31  1  0  0  0  0
 10 32  1  0  0  0  0
 13 33  1  0  0  0  0
 14 34  1  0  0  0  0
 15 35  1  0  0  0  0
 18 36  1  0  0  0  0
 19 37  1  0  0  0  0
 20 38  1  0  0  0  0
 21 39  1  0  0  0  0
 21 40  1  0  0  0  0
 22 41  1  0  0  0  0
 22 42  1  0  0  0  0
M  END
> <r_user_dG.exp>
-10.473

$$$$
CAT-13d
  -OEChem-05192314073D
 Structure written by MMmdl.
 42 45  0     1  0  0  0  0  0999 V2000
   11.7860   -2.3271    1.0538 C   0  0  0  0  0  0  0  0  0  0  0  0
   13.1444   -2.5995    0.5661 N   0  0  0  0  0  0  0  0  0  0  0  0
   14.2729   -2.5333    1.2874 C   0  0  0  0  0  0  0  0  0  0  0  0
   14.3652   -2.2938    2.6004 N   0  0  0  0  0  0  0  0  0  0  0  0
   15.3469   -2.7616    0.5345 N   0  0  0  0  0  0  0  0  0  0  0  0
   15.0192   -3.0683   -0.8497 C   0  0  1  0  0  0  0  0  0  0  0  0
   15.5634   -1.9948   -1.8100 C   0  0  0  0  0  0  0  0  0  0  0  0
   16.1894   -2.3496   -3.0284 C   0  0  0  0  0  0  0  0  0  0  0  0
   16.6159   -1.3547   -3.9204 C   0  0  0  0  0  0  0  0  0  0  0  0
   16.4013    0.0015   -3.6209 C   0  0  0  0  0  0  0  0  0  0  0  0
   15.8080    0.4004   -2.4044 C   0  0  0  0  0  0  0  0  0  0  0  0
   15.5587    1.8326   -2.1090 C   0  0  0  0  0  0  0  0  0  0  0  0
   15.2649    2.7464   -3.1489 C   0  0  0  0  0  0  0  0  0  0  0  0
   14.9444    4.0910   -2.8732 C   0  0  0  0  0  0  0  0  0  0  0  0
   14.9243    4.5522   -1.5465 C   0  0  0  0  0  0  0  0  0  0  0  0
   15.2486    3.6732   -0.5009 C   0  0  0  0  0  0  0  0  0  0  0  0
   15.2426    4.2511    1.1245 Cl  0  0  0  0  0  0  0  0  0  0  0  0
   15.5647    2.3288   -0.7836 C   0  0  0  0  0  0  0  0  0  0  0  0
   15.4125   -0.6168   -1.5039 C   0  0  0  0  0  0  0  0  0  0  0  0
   15.5900   -4.4689   -1.1332 C   0  0  0  0  0  0  0  0  0  0  0  0
   15.3463   -5.2332   -2.4204 C   0  0  0  0  0  0  0  0  0  0  0  0
   16.7355   -4.7539   -2.0801 C   0  0  0  0  0  0  0  0  0  0  0  0
   13.4812   -2.9579   -0.7768 C   0  0  0  0  0  0  0  0  0  0  0  0
   12.6571   -3.1079   -1.6844 O   0  0  0  0  0  0  0  0  0  0  0  0
   11.0669   -2.4632    0.2326 H   0  0  0  0  0  0  0  0  0  0  0  0
   11.5441   -3.0217    1.8717 H   0  0  0  0  0  0  0  0  0  0  0  0
   11.7296   -1.2923    1.4227 H   0  0  0  0  0  0  0  0  0  0  0  0
   15.3131   -2.3105    2.9185 H   0  0  0  0  0  0  0  0  0  0  0  0
   16.2830   -2.7260    0.8844 H   0  0  0  0  0  0  0  0  0  0  0  0
   16.3394   -3.3909   -3.2726 H   0  0  0  0  0  0  0  0  0  0  0  0
   17.1105   -1.6316   -4.8397 H   0  0  0  0  0  0  0  0  0  0  0  0
   16.6967    0.7542   -4.3369 H   0  0  0  0  0  0  0  0  0  0  0  0
   15.2867    2.4068   -4.1739 H   0  0  0  0  0  0  0  0  0  0  0  0
   14.7140    4.7675   -3.6829 H   0  0  0  0  0  0  0  0  0  0  0  0
   14.6608    5.5774   -1.3320 H   0  0  0  0  0  0  0  0  0  0  0  0
   15.8169    1.6632    0.0287 H   0  0  0  0  0  0  0  0  0  0  0  0
   14.9823   -0.3361   -0.5539 H   0  0  0  0  0  0  0  0  0  0  0  0
   15.5945   -5.1144   -0.2425 H   0  0  0  0  0  0  0  0  0  0  0  0
   15.1114   -6.3073   -2.3861 H   0  0  0  0  0  0  0  0  0  0  0  0
   14.7879   -4.7618   -3.2426 H   0  0  0  0  0  0  0  0  0  0  0  0
   17.1898   -3.9336   -2.6552 H   0  0  0  0  0  0  0  0  0  0  0  0
   17.5132   -5.4791   -1.7988 H   0  0  0  0  0  0  0  0  0  0  0  0
  1  2  1  0  0  0  0
  2  3  1  0  0  0  0
  2 23  1  0  0  0  0
  3  4  2  0  0  0  0
  3  5  1  0  0  0  0
  5  6  1  0  0  0  0
  6  7  1  0  0  0  0
  6 20  1  0  0  0  0
  6 23  1  0  0  0  0
  7  8  2  0  0  0  0
  7 19  1  0  0  0  0
  8  9  1  0  0  0  0
  9 10  2  0  0  0  0
 10 11  1  0  0  0  0
 11 12  1  0  0  0  0
 11 19  2  0  0  0  0
 12 13  2  0  0  0  0
 12 18  1  0  0  0  0
 13 14  1  0  0  0  0
 14 15  2  0  0  0  0
 15 16  1  0  0  0  0
 16 18  2  0  0  0  0
 16 17  1  0  0  0  0
 20 21  1  0  0  0  0
 20 22  1  0  0  0  0
 21 22  1  0  0  0  0
 23 24  2  0  0  0  0
  1 25  1  0  0  0  0
  1 26  1  0  0  0  0
  1 27  1  0  0  0  0
  4 28  1  0  0  0  0
  5 29  1  0  0  0  0
  8 30  1  0  0  0  0
  9 31  1  0  0  0  0
 10 32  1  0  0  0  0
 13 33  1  0  0  0  0
 14 34  1  0  0  0  0
 15 35  1  0  0  0  0
 18 36  1  0  0  0  0
 19 37  1  0  0  0  0
 20 38  1  0  0  0  0
 21 39  1  0  0  0  0
 21 40  1  0  0  0  0
 22 41  1  0  0  0  0
 22 42  1  0  0  0  0
M  END
> <r_user_dG.exp>
-10.473

$$$$
