CAT-4j
  -OEChem-05192314073D
 Structure written by MMmdl.
 44 47  0     1  0  0  0  0  0999 V2000
   11.7106   -2.3098    1.2658 C   0  0  0  0  0  0  0  0  0  0  0  0
   13.0313   -2.6523    0.7225 N   0  0  0  0  0  0  0  0  0  0  0  0
   14.2010   -2.6281    1.3773 C   0  0  0  0  0  0  0  0  0  0  0  0
   14.3777   -2.3568    2.6732 N   0  0  0  0  0  0  0  0  0  0  0  0
   15.2217   -2.9197    0.5738 N   0  0  0  0  0  0  0  0  0  0  0  0
   14.7965   -3.2519   -0.7875 C   0  0  2  0  0  0  0  0  0  0  0  0
   15.1409   -4.7334   -1.0690 C   0  0  0  0  0  0  0  0  0  0  0  0
   16.3619   -5.2517   -0.5871 C   0  0  0  0  0  0  0  0  0  0  0  0
   16.7322   -6.5909   -0.7921 C   0  0  0  0  0  0  0  0  0  0  0  0
   15.8605   -7.4582   -1.4613 C   0  0  0  0  0  0  0  0  0  0  0  0
   14.6405   -6.9706   -1.9577 C   0  0  0  0  0  0  0  0  0  0  0  0
   14.2904   -5.6173   -1.7762 C   0  0  0  0  0  0  0  0  0  0  0  0
   15.3794   -2.2443   -1.7949 C   0  0  0  0  0  0  0  0  0  0  0  0
   15.9522   -2.6550   -3.0208 C   0  0  0  0  0  0  0  0  0  0  0  0
   16.4340   -1.6937   -3.9273 C   0  0  0  0  0  0  0  0  0  0  0  0
   16.3364   -0.3224   -3.6308 C   0  0  0  0  0  0  0  0  0  0  0  0
   15.7943    0.1250   -2.4073 C   0  0  0  0  0  0  0  0  0  0  0  0
   15.6711    1.5693   -2.0915 C   0  0  0  0  0  0  0  0  0  0  0  0
   15.3832    2.0354   -0.7903 C   0  0  0  0  0  0  0  0  0  0  0  0
   15.3534    3.4188   -0.5357 C   0  0  0  0  0  0  0  0  0  0  0  0
   15.5968    4.3049   -1.5946 C   0  0  0  0  0  0  0  0  0  0  0  0
   15.8275    3.8920   -2.8511 N   0  0  0  0  0  0  0  0  0  0  0  0
   15.8598    2.5642   -3.0762 C   0  0  0  0  0  0  0  0  0  0  0  0
   15.3327   -0.8573   -1.5012 C   0  0  0  0  0  0  0  0  0  0  0  0
   13.2767   -3.0094   -0.6368 C   0  0  0  0  0  0  0  0  0  0  0  0
   12.3981   -3.0674   -1.5055 O   0  0  0  0  0  0  0  0  0  0  0  0
   10.9487   -2.4288    0.4813 H   0  0  0  0  0  0  0  0  0  0  0  0
   11.4765   -2.9772    2.1083 H   0  0  0  0  0  0  0  0  0  0  0  0
   11.7172   -1.2668    1.6151 H   0  0  0  0  0  0  0  0  0  0  0  0
   15.2973   -2.3692    3.0658 H   0  0  0  0  0  0  0  0  0  0  0  0
   13.5903   -2.1413    3.2508 H   0  0  0  0  0  0  0  0  0  0  0  0
   17.0309   -4.5997   -0.0450 H   0  0  0  0  0  0  0  0  0  0  0  0
   17.6859   -6.9503   -0.4348 H   0  0  0  0  0  0  0  0  0  0  0  0
   16.1248   -8.4968   -1.5951 H   0  0  0  0  0  0  0  0  0  0  0  0
   13.9682   -7.6349   -2.4803 H   0  0  0  0  0  0  0  0  0  0  0  0
   13.3599   -5.2493   -2.1825 H   0  0  0  0  0  0  0  0  0  0  0  0
   16.0196   -3.7058   -3.2607 H   0  0  0  0  0  0  0  0  0  0  0  0
   16.8820   -2.0107   -4.8575 H   0  0  0  0  0  0  0  0  0  0  0  0
   16.6829    0.4018   -4.3532 H   0  0  0  0  0  0  0  0  0  0  0  0
   15.1867    1.3330    0.0062 H   0  0  0  0  0  0  0  0  0  0  0  0
   15.1469    3.7912    0.4568 H   0  0  0  0  0  0  0  0  0  0  0  0
   15.5988    5.3655   -1.3907 H   0  0  0  0  0  0  0  0  0  0  0  0
   16.0443    2.2349   -4.0881 H   0  0  0  0  0  0  0  0  0  0  0  0
   14.9298   -0.5400   -0.5507 H   0  0  0  0  0  0  0  0  0  0  0  0
  1  2  1  0  0  0  0
  2  3  1  0  0  0  0
  2 25  1  0  0  0  0
  3  4  1  0  0  0  0
  3  5  2  0  0  0  0
  5  6  1  0  0  0  0
  6  7  1  0  0  0  0
  6 13  1  0  0  0  0
  6 25  1  0  0  0  0
  7  8  2  0  0  0  0
  7 12  1  0  0  0  0
  8  9  1  0  0  0  0
  9 10  2  0  0  0  0
 10 11  1  0  0  0  0
 11 12  2  0  0  0  0
 13 14  2  0  0  0  0
 13 24  1  0  0  0  0
 14 15  1  0  0  0  0
 15 16  2  0  0  0  0
 16 17  1  0  0  0  0
 17 18  1  0  0  0  0
 17 24  2  0  0  0  0
 18 19  2  0  0  0  0
 18 23  1  0  0  0  0
 19 20  1  0  0  0  0
 20 21  2  0  0  0  0
 21 22  1  0  0  0  0
 22 23  2  0  0  0  0
 25 26  2  0  0  0  0
  1 27  1  0  0  0  0
  1 28  1  0  0  0  0
  1 29  1  0  0  0  0
  4 30  1  0  0  0  0
  4 31  1  0  0  0  0
  8 32  1  0  0  0  0
  9 33  1  0  0  0  0
 10 34  1  0  0  0  0
 11 35  1  0  0  0  0
 12 36  1  0  0  0  0
 14 37  1  0  0  0  0
 15 38  1  0  0  0  0
 16 39  1  0  0  0  0
 19 40  1  0  0  0  0
 20 41  1  0  0  0  0
 21 42  1  0  0  0  0
 23 43  1  0  0  0  0
 24 44  1  0  0  0  0
M  END
> <r_user_dG.exp>
-9.023

$$$$
CAT-4j
  -OEChem-05192314073D
 Structure written by MMmdl.
 44 47  0     1  0  0  0  0  0999 V2000
   11.7106   -2.3098    1.2658 C   0  0  0  0  0  0  0  0  0  0  0  0
   13.0313   -2.6523    0.7225 N   0  0  0  0  0  0  0  0  0  0  0  0
   14.2010   -2.6281    1.3773 C   0  0  0  0  0  0  0  0  0  0  0  0
   14.3777   -2.3568    2.6732 N   0  0  0  0  0  0  0  0  0  0  0  0
   15.2217   -2.9197    0.5738 N   0  0  0  0  0  0  0  0  0  0  0  0
   14.7965   -3.2519   -0.7875 C   0  0  2  0  0  0  0  0  0  0  0  0
   15.1409   -4.7334   -1.0690 C   0  0  0  0  0  0  0  0  0  0  0  0
   16.3619   -5.2517   -0.5871 C   0  0  0  0  0  0  0  0  0  0  0  0
   16.7322   -6.5909   -0.7921 C   0  0  0  0  0  0  0  0  0  0  0  0
   15.8605   -7.4582   -1.4613 C   0  0  0  0  0  0  0  0  0  0  0  0
   14.6405   -6.9706   -1.9577 C   0  0  0  0  0  0  0  0  0  0  0  0
   14.2904   -5.6173   -1.7762 C   0  0  0  0  0  0  0  0  0  0  0  0
   15.3794   -2.2443   -1.7949 C   0  0  0  0  0  0  0  0  0  0  0  0
   15.9522   -2.6550   -3.0208 C   0  0  0  0  0  0  0  0  0  0  0  0
   16.4340   -1.6937   -3.9273 C   0  0  0  0  0  0  0  0  0  0  0  0
   16.3364   -0.3224   -3.6308 C   0  0  0  0  0  0  0  0  0  0  0  0
   15.7943    0.1250   -2.4073 C   0  0  0  0  0  0  0  0  0  0  0  0
   15.6711    1.5693   -2.0915 C   0  0  0  0  0  0  0  0  0  0  0  0
   15.3832    2.0354   -0.7903 C   0  0  0  0  0  0  0  0  0  0  0  0
   15.3534    3.4188   -0.5357 C   0  0  0  0  0  0  0  0  0  0  0  0
   15.5968    4.3049   -1.5946 C   0  0  0  0  0  0  0  0  0  0  0  0
   15.8275    3.8920   -2.8511 N   0  0  0  0  0  0  0  0  0  0  0  0
   15.8598    2.5642   -3.0762 C   0  0  0  0  0  0  0  0  0  0  0  0
   15.3327   -0.8573   -1.5012 C   0  0  0  0  0  0  0  0  0  0  0  0
   13.2767   -3.0094   -0.6368 C   0  0  0  0  0  0  0  0  0  0  0  0
   12.3981   -3.0674   -1.5055 O   0  0  0  0  0  0  0  0  0  0  0  0
   10.9487   -2.4288    0.4813 H   0  0  0  0  0  0  0  0  0  0  0  0
   11.4765   -2.9772    2.1083 H   0  0  0  0  0  0  0  0  0  0  0  0
   11.7172   -1.2668    1.6151 H   0  0  0  0  0  0  0  0  0  0  0  0
   15.3410   -2.4027    2.9376 H   0  0  0  0  0  0  0  0  0  0  0  0
   16.1772   -2.9126    0.8686 H   0  0  0  0  0  0  0  0  0  0  0  0
   17.0309   -4.5997   -0.0450 H   0  0  0  0  0  0  0  0  0  0  0  0
   17.6859   -6.9503   -0.4348 H   0  0  0  0  0  0  0  0  0  0  0  0
   16.1248   -8.4968   -1.5951 H   0  0  0  0  0  0  0  0  0  0  0  0
   13.9682   -7.6349   -2.4803 H   0  0  0  0  0  0  0  0  0  0  0  0
   13.3599   -5.2493   -2.1825 H   0  0  0  0  0  0  0  0  0  0  0  0
   16.0196   -3.7058   -3.2607 H   0  0  0  0  0  0  0  0  0  0  0  0
   16.8820   -2.0107   -4.8575 H   0  0  0  0  0  0  0  0  0  0  0  0
   16.6829    0.4018   -4.3532 H   0  0  0  0  0  0  0  0  0  0  0  0
   15.1867    1.3330    0.0062 H   0  0  0  0  0  0  0  0  0  0  0  0
   15.1469    3.7912    0.4568 H   0  0  0  0  0  0  0  0  0  0  0  0
   15.5988    5.3655   -1.3907 H   0  0  0  0  0  0  0  0  0  0  0  0
   16.0443    2.2349   -4.0881 H   0  0  0  0  0  0  0  0  0  0  0  0
   14.9298   -0.5400   -0.5507 H   0  0  0  0  0  0  0  0  0  0  0  0
  1  2  1  0  0  0  0
  2  3  1  0  0  0  0
  2 25  1  0  0  0  0
  3  4  2  0  0  0  0
  3  5  1  0  0  0  0
  5  6  1  0  0  0  0
  6  7  1  0  0  0  0
  6 13  1  0  0  0  0
  6 25  1  0  0  0  0
  7  8  2  0  0  0  0
  7 12  1  0  0  0  0
  8  9  1  0  0  0  0
  9 10  2  0  0  0  0
 10 11  1  0  0  0  0
 11 12  2  0  0  0  0
 13 14  2  0  0  0  0
 13 24  1  0  0  0  0
 14 15  1  0  0  0  0
 15 16  2  0  0  0  0
 16 17  1  0  0  0  0
 17 18  1  0  0  0  0
 17 24  2  0  0  0  0
 18 19  2  0  0  0  0
 18 23  1  0  0  0  0
 19 20  1  0  0  0  0
 20 21  2  0  0  0  0
 21 22  1  0  0  0  0
 22 23  2  0  0  0  0
 25 26  2  0  0  0  0
  1 27  1  0  0  0  0
  1 28  1  0  0  0  0
  1 29  1  0  0  0  0
  4 30  1  0  0  0  0
  5 31  1  0  0  0  0
  8 32  1  0  0  0  0
  9 33  1  0  0  0  0
 10 34  1  0  0  0  0
 11 35  1  0  0  0  0
 12 36  1  0  0  0  0
 14 37  1  0  0  0  0
 15 38  1  0  0  0  0
 16 39  1  0  0  0  0
 19 40  1  0  0  0  0
 20 41  1  0  0  0  0
 21 42  1  0  0  0  0
 23 43  1  0  0  0  0
 24 44  1  0  0  0  0
M  END
> <r_user_dG.exp>
-9.023

$$$$
