CAT-4a
  -OEChem-05162309453D
 Structure written by MMmdl.
 45 48  0     1  0  0  0  0  0999 V2000
   11.7155   -2.2816    1.2489 C   0  0  0  0  0  0  0  0  0  0  0  0
   13.0381   -2.6195    0.7079 N   0  0  0  0  0  0  0  0  0  0  0  0
   14.2057   -2.6014    1.3666 C   0  0  0  0  0  0  0  0  0  0  0  0
   14.3786   -2.3437    2.6660 N   0  0  0  0  0  0  0  0  0  0  0  0
   15.2286   -2.8858    0.5635 N   0  0  0  0  0  0  0  0  0  0  0  0
   14.8076   -3.2129   -0.8000 C   0  0  2  0  0  0  0  0  0  0  0  0
   15.1467   -4.6965   -1.0818 C   0  0  0  0  0  0  0  0  0  0  0  0
   16.3603   -5.2248   -0.5917 C   0  0  0  0  0  0  0  0  0  0  0  0
   16.7228   -6.5667   -0.7953 C   0  0  0  0  0  0  0  0  0  0  0  0
   15.8495   -7.4280   -1.4705 C   0  0  0  0  0  0  0  0  0  0  0  0
   14.6354   -6.9314   -1.9715 C   0  0  0  0  0  0  0  0  0  0  0  0
   14.2942   -5.5755   -1.7923 C   0  0  0  0  0  0  0  0  0  0  0  0
   15.3967   -2.2027   -1.8015 C   0  0  0  0  0  0  0  0  0  0  0  0
   15.9974   -2.6085   -3.0157 C   0  0  0  0  0  0  0  0  0  0  0  0
   16.4805   -1.6424   -3.9173 C   0  0  0  0  0  0  0  0  0  0  0  0
   16.3578   -0.2708   -3.6263 C   0  0  0  0  0  0  0  0  0  0  0  0
   15.7919    0.1718   -2.4127 C   0  0  0  0  0  0  0  0  0  0  0  0
   15.6399    1.6146   -2.0981 C   0  0  0  0  0  0  0  0  0  0  0  0
   15.4538    2.5838   -3.1120 C   0  0  0  0  0  0  0  0  0  0  0  0
   15.2099    3.9358   -2.7897 C   0  0  0  0  0  0  0  0  0  0  0  0
   15.1604    4.3485   -1.4470 C   0  0  0  0  0  0  0  0  0  0  0  0
   15.3892    3.4118   -0.4273 C   0  0  0  0  0  0  0  0  0  0  0  0
   15.6325    2.0660   -0.7583 C   0  0  0  0  0  0  0  0  0  0  0  0
   15.3278   -0.8153   -1.5134 C   0  0  0  0  0  0  0  0  0  0  0  0
   13.2876   -2.9675   -0.6530 C   0  0  0  0  0  0  0  0  0  0  0  0
   12.4113   -3.0211   -1.5243 O   0  0  0  0  0  0  0  0  0  0  0  0
   10.9567   -2.3937    0.4605 H   0  0  0  0  0  0  0  0  0  0  0  0
   11.4781   -2.9562    2.0847 H   0  0  0  0  0  0  0  0  0  0  0  0
   11.7208   -1.2416    1.6073 H   0  0  0  0  0  0  0  0  0  0  0  0
   15.2970   -2.3612    3.0613 H   0  0  0  0  0  0  0  0  0  0  0  0
   13.5896   -2.1333    3.2433 H   0  0  0  0  0  0  0  0  0  0  0  0
   17.0300   -4.5783   -0.0440 H   0  0  0  0  0  0  0  0  0  0  0  0
   17.6718   -6.9327   -0.4323 H   0  0  0  0  0  0  0  0  0  0  0  0
   16.1081   -8.4679   -1.6051 H   0  0  0  0  0  0  0  0  0  0  0  0
   13.9602   -7.5910   -2.4963 H   0  0  0  0  0  0  0  0  0  0  0  0
   13.3682   -5.2015   -2.2034 H   0  0  0  0  0  0  0  0  0  0  0  0
   16.0853   -3.6590   -3.2507 H   0  0  0  0  0  0  0  0  0  0  0  0
   16.9486   -1.9554   -4.8389 H   0  0  0  0  0  0  0  0  0  0  0  0
   16.7035    0.4565   -4.3460 H   0  0  0  0  0  0  0  0  0  0  0  0
   15.4991    2.2842   -4.1486 H   0  0  0  0  0  0  0  0  0  0  0  0
   15.0604    4.6575   -3.5791 H   0  0  0  0  0  0  0  0  0  0  0  0
   14.9479    5.3786   -1.2019 H   0  0  0  0  0  0  0  0  0  0  0  0
   15.3786    3.7226    0.6070 H   0  0  0  0  0  0  0  0  0  0  0  0
   15.8191    1.3569    0.0346 H   0  0  0  0  0  0  0  0  0  0  0  0
   14.9045   -0.5011   -0.5708 H   0  0  0  0  0  0  0  0  0  0  0  0
  1  2  1  0  0  0  0
  2  3  1  0  0  0  0
  2 25  1  0  0  0  0
  3  4  1  0  0  0  0
  3  5  2  0  0  0  0
  5  6  1  0  0  0  0
  6  7  1  0  0  0  0
  6 13  1  0  0  0  0
  6 25  1  0  0  0  0
  7  8  2  0  0  0  0
  7 12  1  0  0  0  0
  8  9  1  0  0  0  0
  9 10  2  0  0  0  0
 10 11  1  0  0  0  0
 11 12  2  0  0  0  0
 13 14  2  0  0  0  0
 13 24  1  0  0  0  0
 14 15  1  0  0  0  0
 15 16  2  0  0  0  0
 16 17  1  0  0  0  0
 17 18  1  0  0  0  0
 17 24  2  0  0  0  0
 18 19  2  0  0  0  0
 18 23  1  0  0  0  0
 19 20  1  0  0  0  0
 20 21  2  0  0  0  0
 21 22  1  0  0  0  0
 22 23  2  0  0  0  0
 25 26  2  0  0  0  0
  1 27  1  0  0  0  0
  1 28  1  0  0  0  0
  1 29  1  0  0  0  0
  4 30  1  0  0  0  0
  4 31  1  0  0  0  0
  8 32  1  0  0  0  0
  9 33  1  0  0  0  0
 10 34  1  0  0  0  0
 11 35  1  0  0  0  0
 12 36  1  0  0  0  0
 14 37  1  0  0  0  0
 15 38  1  0  0  0  0
 16 39  1  0  0  0  0
 19 40  1  0  0  0  0
 20 41  1  0  0  0  0
 21 42  1  0  0  0  0
 22 43  1  0  0  0  0
 23 44  1  0  0  0  0
 24 45  1  0  0  0  0
M  END
> <r_user_dG.exp>
-7.933

$$$$
CAT-4a
  -OEChem-05162309453D
 Structure written by MMmdl.
 45 48  0     1  0  0  0  0  0999 V2000
   11.7155   -2.2816    1.2489 C   0  0  0  0  0  0  0  0  0  0  0  0
   13.0381   -2.6195    0.7079 N   0  0  0  0  0  0  0  0  0  0  0  0
   14.2057   -2.6014    1.3666 C   0  0  0  0  0  0  0  0  0  0  0  0
   14.3786   -2.3437    2.6660 N   0  0  0  0  0  0  0  0  0  0  0  0
   15.2286   -2.8858    0.5635 N   0  0  0  0  0  0  0  0  0  0  0  0
   14.8076   -3.2129   -0.8000 C   0  0  2  0  0  0  0  0  0  0  0  0
   15.1467   -4.6965   -1.0818 C   0  0  0  0  0  0  0  0  0  0  0  0
   16.3603   -5.2248   -0.5917 C   0  0  0  0  0  0  0  0  0  0  0  0
   16.7228   -6.5667   -0.7953 C   0  0  0  0  0  0  0  0  0  0  0  0
   15.8495   -7.4280   -1.4705 C   0  0  0  0  0  0  0  0  0  0  0  0
   14.6354   -6.9314   -1.9715 C   0  0  0  0  0  0  0  0  0  0  0  0
   14.2942   -5.5755   -1.7923 C   0  0  0  0  0  0  0  0  0  0  0  0
   15.3967   -2.2027   -1.8015 C   0  0  0  0  0  0  0  0  0  0  0  0
   15.9974   -2.6085   -3.0157 C   0  0  0  0  0  0  0  0  0  0  0  0
   16.4805   -1.6424   -3.9173 C   0  0  0  0  0  0  0  0  0  0  0  0
   16.3578   -0.2708   -3.6263 C   0  0  0  0  0  0  0  0  0  0  0  0
   15.7919    0.1718   -2.4127 C   0  0  0  0  0  0  0  0  0  0  0  0
   15.6399    1.6146   -2.0981 C   0  0  0  0  0  0  0  0  0  0  0  0
   15.4538    2.5838   -3.1120 C   0  0  0  0  0  0  0  0  0  0  0  0
   15.2099    3.9358   -2.7897 C   0  0  0  0  0  0  0  0  0  0  0  0
   15.1604    4.3485   -1.4470 C   0  0  0  0  0  0  0  0  0  0  0  0
   15.3892    3.4118   -0.4273 C   0  0  0  0  0  0  0  0  0  0  0  0
   15.6325    2.0660   -0.7583 C   0  0  0  0  0  0  0  0  0  0  0  0
   15.3278   -0.8153   -1.5134 C   0  0  0  0  0  0  0  0  0  0  0  0
   13.2876   -2.9675   -0.6530 C   0  0  0  0  0  0  0  0  0  0  0  0
   12.4113   -3.0211   -1.5243 O   0  0  0  0  0  0  0  0  0  0  0  0
   10.9567   -2.3937    0.4605 H   0  0  0  0  0  0  0  0  0  0  0  0
   11.4781   -2.9562    2.0847 H   0  0  0  0  0  0  0  0  0  0  0  0
   11.7208   -1.2416    1.6073 H   0  0  0  0  0  0  0  0  0  0  0  0
   15.3410   -2.3934    2.9329 H   0  0  0  0  0  0  0  0  0  0  0  0
   16.1835   -2.8769    0.8602 H   0  0  0  0  0  0  0  0  0  0  0  0
   17.0300   -4.5783   -0.0440 H   0  0  0  0  0  0  0  0  0  0  0  0
   17.6718   -6.9327   -0.4323 H   0  0  0  0  0  0  0  0  0  0  0  0
   16.1081   -8.4679   -1.6051 H   0  0  0  0  0  0  0  0  0  0  0  0
   13.9602   -7.5910   -2.4963 H   0  0  0  0  0  0  0  0  0  0  0  0
   13.3682   -5.2015   -2.2034 H   0  0  0  0  0  0  0  0  0  0  0  0
   16.0853   -3.6590   -3.2507 H   0  0  0  0  0  0  0  0  0  0  0  0
   16.9486   -1.9554   -4.8389 H   0  0  0  0  0  0  0  0  0  0  0  0
   16.7035    0.4565   -4.3460 H   0  0  0  0  0  0  0  0  0  0  0  0
   15.4991    2.2842   -4.1486 H   0  0  0  0  0  0  0  0  0  0  0  0
   15.0604    4.6575   -3.5791 H   0  0  0  0  0  0  0  0  0  0  0  0
   14.9479    5.3786   -1.2019 H   0  0  0  0  0  0  0  0  0  0  0  0
   15.3786    3.7226    0.6070 H   0  0  0  0  0  0  0  0  0  0  0  0
   15.8191    1.3569    0.0346 H   0  0  0  0  0  0  0  0  0  0  0  0
   14.9045   -0.5011   -0.5708 H   0  0  0  0  0  0  0  0  0  0  0  0
  1  2  1  0  0  0  0
  2  3  1  0  0  0  0
  2 25  1  0  0  0  0
  3  4  2  0  0  0  0
  3  5  1  0  0  0  0
  5  6  1  0  0  0  0
  6  7  1  0  0  0  0
  6 13  1  0  0  0  0
  6 25  1  0  0  0  0
  7  8  2  0  0  0  0
  7 12  1  0  0  0  0
  8  9  1  0  0  0  0
  9 10  2  0  0  0  0
 10 11  1  0  0  0  0
 11 12  2  0  0  0  0
 13 14  2  0  0  0  0
 13 24  1  0  0  0  0
 14 15  1  0  0  0  0
 15 16  2  0  0  0  0
 16 17  1  0  0  0  0
 17 18  1  0  0  0  0
 17 24  2  0  0  0  0
 18 19  2  0  0  0  0
 18 23  1  0  0  0  0
 19 20  1  0  0  0  0
 20 21  2  0  0  0  0
 21 22  1  0  0  0  0
 22 23  2  0  0  0  0
 25 26  2  0  0  0  0
  1 27  1  0  0  0  0
  1 28  1  0  0  0  0
  1 29  1  0  0  0  0
  4 30  1  0  0  0  0
  5 31  1  0  0  0  0
  8 32  1  0  0  0  0
  9 33  1  0  0  0  0
 10 34  1  0  0  0  0
 11 35  1  0  0  0  0
 12 36  1  0  0  0  0
 14 37  1  0  0  0  0
 15 38  1  0  0  0  0
 16 39  1  0  0  0  0
 19 40  1  0  0  0  0
 20 41  1  0  0  0  0
 21 42  1  0  0  0  0
 22 43  1  0  0  0  0
 23 44  1  0  0  0  0
 24 45  1  0  0  0  0
M  END
> <r_user_dG.exp>
-7.933

$$$$
