CAT-13b
  -OEChem-05192314073D
 Structure written by MMmdl.
 41 43  0     1  0  0  0  0  0999 V2000
   14.8880   -5.3200   -2.2411 C   0  0  0  0  0  0  0  0  0  0  0  0
   15.5152   -4.5191   -1.0878 C   0  0  0  0  0  0  0  0  0  0  0  0
   15.0250   -3.0580   -0.8408 C   0  0  2  0  0  0  0  0  0  0  0  0
   15.5972   -1.9892   -1.7961 C   0  0  0  0  0  0  0  0  0  0  0  0
   16.2813   -2.3331   -2.9861 C   0  0  0  0  0  0  0  0  0  0  0  0
   16.6931   -1.3359   -3.8827 C   0  0  0  0  0  0  0  0  0  0  0  0
   16.4366    0.0163   -3.6011 C   0  0  0  0  0  0  0  0  0  0  0  0
   15.8215    0.4094   -2.3948 C   0  0  0  0  0  0  0  0  0  0  0  0
   15.5584    1.8393   -2.1031 C   0  0  0  0  0  0  0  0  0  0  0  0
   15.2599    2.7489   -3.1451 C   0  0  0  0  0  0  0  0  0  0  0  0
   14.9356    4.0932   -2.8723 C   0  0  0  0  0  0  0  0  0  0  0  0
   14.9160    4.5575   -1.5465 C   0  0  0  0  0  0  0  0  0  0  0  0
   15.2425    3.6816   -0.4989 C   0  0  0  0  0  0  0  0  0  0  0  0
   15.2357    4.2626    1.1255 Cl  0  0  0  0  0  0  0  0  0  0  0  0
   15.5620    2.3374   -0.7787 C   0  0  0  0  0  0  0  0  0  0  0  0
   15.4202   -0.6110   -1.5012 C   0  0  0  0  0  0  0  0  0  0  0  0
   15.3485   -2.7407    0.5435 N   0  0  0  0  0  0  0  0  0  0  0  0
   14.2748   -2.5004    1.2924 C   0  0  0  0  0  0  0  0  0  0  0  0
   14.3659   -2.2678    2.6058 N   0  0  0  0  0  0  0  0  0  0  0  0
   13.1492   -2.5542    0.5669 N   0  0  0  0  0  0  0  0  0  0  0  0
   11.7915   -2.2624    1.0450 C   0  0  0  0  0  0  0  0  0  0  0  0
   13.4891   -2.9216   -0.7722 C   0  0  0  0  0  0  0  0  0  0  0  0
   12.6678   -3.0625   -1.6834 O   0  0  0  0  0  0  0  0  0  0  0  0
   15.3392   -6.3224   -2.2800 H   0  0  0  0  0  0  0  0  0  0  0  0
   13.8043   -5.4120   -2.0766 H   0  0  0  0  0  0  0  0  0  0  0  0
   15.0715   -4.7983   -3.1920 H   0  0  0  0  0  0  0  0  0  0  0  0
   15.3303   -5.0841   -0.1623 H   0  0  0  0  0  0  0  0  0  0  0  0
   16.5976   -4.4704   -1.2777 H   0  0  0  0  0  0  0  0  0  0  0  0
   16.4878   -3.3702   -3.2055 H   0  0  0  0  0  0  0  0  0  0  0  0
   17.2086   -1.6084   -4.7918 H   0  0  0  0  0  0  0  0  0  0  0  0
   16.7161    0.7696   -4.3228 H   0  0  0  0  0  0  0  0  0  0  0  0
   15.2810    2.4065   -4.1692 H   0  0  0  0  0  0  0  0  0  0  0  0
   14.7019    4.7670   -3.6833 H   0  0  0  0  0  0  0  0  0  0  0  0
   14.6512    5.5828   -1.3342 H   0  0  0  0  0  0  0  0  0  0  0  0
   15.8149    1.6738    0.0350 H   0  0  0  0  0  0  0  0  0  0  0  0
   14.9637   -0.3328   -0.5628 H   0  0  0  0  0  0  0  0  0  0  0  0
   15.2602   -2.2711    3.0533 H   0  0  0  0  0  0  0  0  0  0  0  0
   13.5398   -2.0905    3.1407 H   0  0  0  0  0  0  0  0  0  0  0  0
   11.0758   -2.3925    0.2199 H   0  0  0  0  0  0  0  0  0  0  0  0
   11.5356   -2.9505    1.8642 H   0  0  0  0  0  0  0  0  0  0  0  0
   11.7462   -1.2255    1.4095 H   0  0  0  0  0  0  0  0  0  0  0  0
  1  2  1  0  0  0  0
  2  3  1  0  0  0  0
  3  4  1  0  0  0  0
  3 17  1  0  0  0  0
  3 22  1  0  0  0  0
  4  5  2  0  0  0  0
  4 16  1  0  0  0  0
  5  6  1  0  0  0  0
  6  7  2  0  0  0  0
  7  8  1  0  0  0  0
  8  9  1  0  0  0  0
  8 16  2  0  0  0  0
  9 10  2  0  0  0  0
  9 15  1  0  0  0  0
 10 11  1  0  0  0  0
 11 12  2  0  0  0  0
 12 13  1  0  0  0  0
 13 14  1  0  0  0  0
 13 15  2  0  0  0  0
 17 18  2  0  0  0  0
 18 19  1  0  0  0  0
 18 20  1  0  0  0  0
 20 21  1  0  0  0  0
 20 22  1  0  0  0  0
 22 23  2  0  0  0  0
  1 24  1  0  0  0  0
  1 25  1  0  0  0  0
  1 26  1  0  0  0  0
  2 27  1  0  0  0  0
  2 28  1  0  0  0  0
  5 29  1  0  0  0  0
  6 30  1  0  0  0  0
  7 31  1  0  0  0  0
 10 32  1  0  0  0  0
 11 33  1  0  0  0  0
 12 34  1  0  0  0  0
 15 35  1  0  0  0  0
 16 36  1  0  0  0  0
 19 37  1  0  0  0  0
 19 38  1  0  0  0  0
 21 39  1  0  0  0  0
 21 40  1  0  0  0  0
 21 41  1  0  0  0  0
M  END
> <r_user_dG.exp>
-9.123

$$$$
CAT-13b
  -OEChem-05192314073D
 Structure written by MMmdl.
 41 43  0     1  0  0  0  0  0999 V2000
   14.8880   -5.3200   -2.2411 C   0  0  0  0  0  0  0  0  0  0  0  0
   15.5152   -4.5191   -1.0878 C   0  0  0  0  0  0  0  0  0  0  0  0
   15.0250   -3.0580   -0.8408 C   0  0  2  0  0  0  0  0  0  0  0  0
   15.5972   -1.9892   -1.7961 C   0  0  0  0  0  0  0  0  0  0  0  0
   16.2813   -2.3331   -2.9861 C   0  0  0  0  0  0  0  0  0  0  0  0
   16.6931   -1.3359   -3.8827 C   0  0  0  0  0  0  0  0  0  0  0  0
   16.4366    0.0163   -3.6011 C   0  0  0  0  0  0  0  0  0  0  0  0
   15.8215    0.4094   -2.3948 C   0  0  0  0  0  0  0  0  0  0  0  0
   15.5584    1.8393   -2.1031 C   0  0  0  0  0  0  0  0  0  0  0  0
   15.2599    2.7489   -3.1451 C   0  0  0  0  0  0  0  0  0  0  0  0
   14.9356    4.0932   -2.8723 C   0  0  0  0  0  0  0  0  0  0  0  0
   14.9160    4.5575   -1.5465 C   0  0  0  0  0  0  0  0  0  0  0  0
   15.2425    3.6816   -0.4989 C   0  0  0  0  0  0  0  0  0  0  0  0
   15.2357    4.2626    1.1255 Cl  0  0  0  0  0  0  0  0  0  0  0  0
   15.5620    2.3374   -0.7787 C   0  0  0  0  0  0  0  0  0  0  0  0
   15.4202   -0.6110   -1.5012 C   0  0  0  0  0  0  0  0  0  0  0  0
   15.3485   -2.7407    0.5435 N   0  0  0  0  0  0  0  0  0  0  0  0
   14.2748   -2.5004    1.2924 C   0  0  0  0  0  0  0  0  0  0  0  0
   14.3659   -2.2678    2.6058 N   0  0  0  0  0  0  0  0  0  0  0  0
   13.1492   -2.5542    0.5669 N   0  0  0  0  0  0  0  0  0  0  0  0
   11.7915   -2.2624    1.0450 C   0  0  0  0  0  0  0  0  0  0  0  0
   13.4891   -2.9216   -0.7722 C   0  0  0  0  0  0  0  0  0  0  0  0
   12.6678   -3.0625   -1.6834 O   0  0  0  0  0  0  0  0  0  0  0  0
   15.3392   -6.3224   -2.2800 H   0  0  0  0  0  0  0  0  0  0  0  0
   13.8043   -5.4120   -2.0766 H   0  0  0  0  0  0  0  0  0  0  0  0
   15.0715   -4.7983   -3.1920 H   0  0  0  0  0  0  0  0  0  0  0  0
   15.3303   -5.0841   -0.1623 H   0  0  0  0  0  0  0  0  0  0  0  0
   16.5976   -4.4704   -1.2777 H   0  0  0  0  0  0  0  0  0  0  0  0
   16.4878   -3.3702   -3.2055 H   0  0  0  0  0  0  0  0  0  0  0  0
   17.2086   -1.6084   -4.7918 H   0  0  0  0  0  0  0  0  0  0  0  0
   16.7161    0.7696   -4.3228 H   0  0  0  0  0  0  0  0  0  0  0  0
   15.2810    2.4065   -4.1692 H   0  0  0  0  0  0  0  0  0  0  0  0
   14.7019    4.7670   -3.6833 H   0  0  0  0  0  0  0  0  0  0  0  0
   14.6512    5.5828   -1.3342 H   0  0  0  0  0  0  0  0  0  0  0  0
   15.8149    1.6738    0.0350 H   0  0  0  0  0  0  0  0  0  0  0  0
   14.9637   -0.3328   -0.5628 H   0  0  0  0  0  0  0  0  0  0  0  0
   16.2837   -2.7068    0.8959 H   0  0  0  0  0  0  0  0  0  0  0  0
   13.4686   -2.1292    3.0248 H   0  0  0  0  0  0  0  0  0  0  0  0
   11.0758   -2.3925    0.2199 H   0  0  0  0  0  0  0  0  0  0  0  0
   11.5356   -2.9505    1.8642 H   0  0  0  0  0  0  0  0  0  0  0  0
   11.7462   -1.2255    1.4095 H   0  0  0  0  0  0  0  0  0  0  0  0
  1  2  1  0  0  0  0
  2  3  1  0  0  0  0
  3  4  1  0  0  0  0
  3 17  1  0  0  0  0
  3 22  1  0  0  0  0
  4  5  2  0  0  0  0
  4 16  1  0  0  0  0
  5  6  1  0  0  0  0
  6  7  2  0  0  0  0
  7  8  1  0  0  0  0
  8  9  1  0  0  0  0
  8 16  2  0  0  0  0
  9 10  2  0  0  0  0
  9 15  1  0  0  0  0
 10 11  1  0  0  0  0
 11 12  2  0  0  0  0
 12 13  1  0  0  0  0
 13 14  1  0  0  0  0
 13 15  2  0  0  0  0
 17 18  1  0  0  0  0
 18 19  2  0  0  0  0
 18 20  1  0  0  0  0
 20 21  1  0  0  0  0
 20 22  1  0  0  0  0
 22 23  2  0  0  0  0
  1 24  1  0  0  0  0
  1 25  1  0  0  0  0
  1 26  1  0  0  0  0
  2 27  1  0  0  0  0
  2 28  1  0  0  0  0
  5 29  1  0  0  0  0
  6 30  1  0  0  0  0
  7 31  1  0  0  0  0
 10 32  1  0  0  0  0
 11 33  1  0  0  0  0
 12 34  1  0  0  0  0
 15 35  1  0  0  0  0
 16 36  1  0  0  0  0
 17 37  1  0  0  0  0
 19 38  1  0  0  0  0
 21 39  1  0  0  0  0
 21 40  1  0  0  0  0
 21 41  1  0  0  0  0
M  END
> <r_user_dG.exp>
-9.123

$$$$
