CAT-17i
  -OEChem-05192314073D
 Structure written by MMmdl.
 44 47  0     1  0  0  0  0  0999 V2000
   15.2932    4.2915    1.0147 C   0  0  0  0  0  0  0  0  0  0  0  0
   15.2616    3.7480   -0.3995 C   0  0  0  0  0  0  0  0  0  0  0  0
   14.9085    4.5739   -1.4751 C   0  0  0  0  0  0  0  0  0  0  0  0
   14.8944    4.1495   -2.7538 N   0  0  0  0  0  0  0  0  0  0  0  0
   15.2063    2.8612   -2.9971 C   0  0  0  0  0  0  0  0  0  0  0  0
   15.5301    1.9161   -2.0030 C   0  0  0  0  0  0  0  0  0  0  0  0
   15.7496    0.4844   -2.3447 C   0  0  0  0  0  0  0  0  0  0  0  0
   16.2883    0.1102   -3.5962 C   0  0  0  0  0  0  0  0  0  0  0  0
   16.4392   -1.2422   -3.9406 C   0  0  0  0  0  0  0  0  0  0  0  0
   15.9908   -2.2528   -3.0810 C   0  0  0  0  0  0  0  0  0  0  0  0
   15.4339   -1.9362   -1.8222 C   0  0  0  0  0  0  0  0  0  0  0  0
   14.8689   -2.9894   -0.8318 C   0  0  1  0  0  0  0  0  0  0  0  0
   15.1312   -4.5068   -0.9958 C   0  0  0  0  0  0  0  0  0  0  0  0
   14.8281   -5.2744   -2.2582 C   0  0  0  0  0  0  0  0  0  0  0  0
   16.2398   -5.2146   -1.7420 C   0  0  0  0  0  0  0  0  0  0  0  0
   15.2808   -2.6745    0.5323 N   0  0  0  0  0  0  0  0  0  0  0  0
   14.2359   -2.5141    1.3440 C   0  0  0  0  0  0  0  0  0  0  0  0
   14.3825   -2.3702    2.6646 N   0  0  0  0  0  0  0  0  0  0  0  0
   13.0741   -2.5549    0.6745 N   0  0  0  0  0  0  0  0  0  0  0  0
   11.7278   -2.4944    1.2586 C   0  0  0  0  0  0  0  0  0  0  0  0
   13.3510   -2.7948   -0.7027 C   0  0  0  0  0  0  0  0  0  0  0  0
   12.4937   -2.8958   -1.5869 O   0  0  0  0  0  0  0  0  0  0  0  0
   15.3607   -0.5585   -1.4665 C   0  0  0  0  0  0  0  0  0  0  0  0
   15.5842    2.4020   -0.6755 C   0  0  0  0  0  0  0  0  0  0  0  0
   14.3058    4.1592    1.4811 H   0  0  0  0  0  0  0  0  0  0  0  0
   16.0504    3.7484    1.5992 H   0  0  0  0  0  0  0  0  0  0  0  0
   15.5467    5.3616    0.9905 H   0  0  0  0  0  0  0  0  0  0  0  0
   14.6349    5.5983   -1.2695 H   0  0  0  0  0  0  0  0  0  0  0  0
   15.2083    2.5301   -4.0251 H   0  0  0  0  0  0  0  0  0  0  0  0
   16.5880    0.8751   -4.2973 H   0  0  0  0  0  0  0  0  0  0  0  0
   16.9059   -1.5061   -4.8781 H   0  0  0  0  0  0  0  0  0  0  0  0
   16.0718   -3.2862   -3.3841 H   0  0  0  0  0  0  0  0  0  0  0  0
   14.8260   -5.0625   -0.0969 H   0  0  0  0  0  0  0  0  0  0  0  0
   14.2635   -6.2170   -2.2057 H   0  0  0  0  0  0  0  0  0  0  0  0
   14.5560   -4.7347   -3.1773 H   0  0  0  0  0  0  0  0  0  0  0  0
   16.9989   -4.6305   -2.2829 H   0  0  0  0  0  0  0  0  0  0  0  0
   16.7065   -6.1128   -1.3113 H   0  0  0  0  0  0  0  0  0  0  0  0
   15.2964   -2.3811    3.0703 H   0  0  0  0  0  0  0  0  0  0  0  0
   13.5783   -2.2517    3.2470 H   0  0  0  0  0  0  0  0  0  0  0  0
   10.9768   -2.5500    0.4568 H   0  0  0  0  0  0  0  0  0  0  0  0
   11.5897   -3.3392    1.9494 H   0  0  0  0  0  0  0  0  0  0  0  0
   11.6086   -1.5486    1.8075 H   0  0  0  0  0  0  0  0  0  0  0  0
   14.9930   -0.2972   -0.4852 H   0  0  0  0  0  0  0  0  0  0  0  0
   15.8730    1.7414    0.1286 H   0  0  0  0  0  0  0  0  0  0  0  0
  1  2  1  0  0  0  0
  2  3  2  0  0  0  0
  2 24  1  0  0  0  0
  3  4  1  0  0  0  0
  4  5  2  0  0  0  0
  5  6  1  0  0  0  0
  6  7  1  0  0  0  0
  6 24  2  0  0  0  0
  7  8  2  0  0  0  0
  7 23  1  0  0  0  0
  8  9  1  0  0  0  0
  9 10  2  0  0  0  0
 10 11  1  0  0  0  0
 11 12  1  0  0  0  0
 11 23  2  0  0  0  0
 12 13  1  0  0  0  0
 12 16  1  0  0  0  0
 12 21  1  0  0  0  0
 13 14  1  0  0  0  0
 13 15  1  0  0  0  0
 14 15  1  0  0  0  0
 16 17  2  0  0  0  0
 17 18  1  0  0  0  0
 17 19  1  0  0  0  0
 19 20  1  0  0  0  0
 19 21  1  0  0  0  0
 21 22  2  0  0  0  0
  1 25  1  0  0  0  0
  1 26  1  0  0  0  0
  1 27  1  0  0  0  0
  3 28  1  0  0  0  0
  5 29  1  0  0  0  0
  8 30  1  0  0  0  0
  9 31  1  0  0  0  0
 10 32  1  0  0  0  0
 13 33  1  0  0  0  0
 14 34  1  0  0  0  0
 14 35  1  0  0  0  0
 15 36  1  0  0  0  0
 15 37  1  0  0  0  0
 18 38  1  0  0  0  0
 18 39  1  0  0  0  0
 20 40  1  0  0  0  0
 20 41  1  0  0  0  0
 20 42  1  0  0  0  0
 23 43  1  0  0  0  0
 24 44  1  0  0  0  0
M  END
> <r_user_dG.exp>
-9.473

$$$$
CAT-17i
  -OEChem-05192314073D
 Structure written by MMmdl.
 44 47  0     1  0  0  0  0  0999 V2000
   15.2932    4.2915    1.0147 C   0  0  0  0  0  0  0  0  0  0  0  0
   15.2616    3.7480   -0.3995 C   0  0  0  0  0  0  0  0  0  0  0  0
   14.9085    4.5739   -1.4751 C   0  0  0  0  0  0  0  0  0  0  0  0
   14.8944    4.1495   -2.7538 N   0  0  0  0  0  0  0  0  0  0  0  0
   15.2063    2.8612   -2.9971 C   0  0  0  0  0  0  0  0  0  0  0  0
   15.5301    1.9161   -2.0030 C   0  0  0  0  0  0  0  0  0  0  0  0
   15.7496    0.4844   -2.3447 C   0  0  0  0  0  0  0  0  0  0  0  0
   16.2883    0.1102   -3.5962 C   0  0  0  0  0  0  0  0  0  0  0  0
   16.4392   -1.2422   -3.9406 C   0  0  0  0  0  0  0  0  0  0  0  0
   15.9908   -2.2528   -3.0810 C   0  0  0  0  0  0  0  0  0  0  0  0
   15.4339   -1.9362   -1.8222 C   0  0  0  0  0  0  0  0  0  0  0  0
   14.8689   -2.9894   -0.8318 C   0  0  1  0  0  0  0  0  0  0  0  0
   15.1312   -4.5068   -0.9958 C   0  0  0  0  0  0  0  0  0  0  0  0
   14.8281   -5.2744   -2.2582 C   0  0  0  0  0  0  0  0  0  0  0  0
   16.2398   -5.2146   -1.7420 C   0  0  0  0  0  0  0  0  0  0  0  0
   15.2808   -2.6745    0.5323 N   0  0  0  0  0  0  0  0  0  0  0  0
   14.2359   -2.5141    1.3440 C   0  0  0  0  0  0  0  0  0  0  0  0
   14.3825   -2.3702    2.6646 N   0  0  0  0  0  0  0  0  0  0  0  0
   13.0741   -2.5549    0.6745 N   0  0  0  0  0  0  0  0  0  0  0  0
   11.7278   -2.4944    1.2586 C   0  0  0  0  0  0  0  0  0  0  0  0
   13.3510   -2.7948   -0.7027 C   0  0  0  0  0  0  0  0  0  0  0  0
   12.4937   -2.8958   -1.5869 O   0  0  0  0  0  0  0  0  0  0  0  0
   15.3607   -0.5585   -1.4665 C   0  0  0  0  0  0  0  0  0  0  0  0
   15.5842    2.4020   -0.6755 C   0  0  0  0  0  0  0  0  0  0  0  0
   14.3058    4.1592    1.4811 H   0  0  0  0  0  0  0  0  0  0  0  0
   16.0504    3.7484    1.5992 H   0  0  0  0  0  0  0  0  0  0  0  0
   15.5467    5.3616    0.9905 H   0  0  0  0  0  0  0  0  0  0  0  0
   14.6349    5.5983   -1.2695 H   0  0  0  0  0  0  0  0  0  0  0  0
   15.2083    2.5301   -4.0251 H   0  0  0  0  0  0  0  0  0  0  0  0
   16.5880    0.8751   -4.2973 H   0  0  0  0  0  0  0  0  0  0  0  0
   16.9059   -1.5061   -4.8781 H   0  0  0  0  0  0  0  0  0  0  0  0
   16.0718   -3.2862   -3.3841 H   0  0  0  0  0  0  0  0  0  0  0  0
   14.8260   -5.0625   -0.0969 H   0  0  0  0  0  0  0  0  0  0  0  0
   14.2635   -6.2170   -2.2057 H   0  0  0  0  0  0  0  0  0  0  0  0
   14.5560   -4.7347   -3.1773 H   0  0  0  0  0  0  0  0  0  0  0  0
   16.9989   -4.6305   -2.2829 H   0  0  0  0  0  0  0  0  0  0  0  0
   16.7065   -6.1128   -1.3113 H   0  0  0  0  0  0  0  0  0  0  0  0
   16.2337   -2.5892    0.8234 H   0  0  0  0  0  0  0  0  0  0  0  0
   13.5024   -2.2916    3.1328 H   0  0  0  0  0  0  0  0  0  0  0  0
   10.9768   -2.5500    0.4568 H   0  0  0  0  0  0  0  0  0  0  0  0
   11.5897   -3.3392    1.9494 H   0  0  0  0  0  0  0  0  0  0  0  0
   11.6086   -1.5486    1.8075 H   0  0  0  0  0  0  0  0  0  0  0  0
   14.9930   -0.2972   -0.4852 H   0  0  0  0  0  0  0  0  0  0  0  0
   15.8730    1.7414    0.1286 H   0  0  0  0  0  0  0  0  0  0  0  0
  1  2  1  0  0  0  0
  2  3  2  0  0  0  0
  2 24  1  0  0  0  0
  3  4  1  0  0  0  0
  4  5  2  0  0  0  0
  5  6  1  0  0  0  0
  6  7  1  0  0  0  0
  6 24  2  0  0  0  0
  7  8  2  0  0  0  0
  7 23  1  0  0  0  0
  8  9  1  0  0  0  0
  9 10  2  0  0  0  0
 10 11  1  0  0  0  0
 11 12  1  0  0  0  0
 11 23  2  0  0  0  0
 12 13  1  0  0  0  0
 12 16  1  0  0  0  0
 12 21  1  0  0  0  0
 13 14  1  0  0  0  0
 13 15  1  0  0  0  0
 14 15  1  0  0  0  0
 16 17  1  0  0  0  0
 17 18  2  0  0  0  0
 17 19  1  0  0  0  0
 19 20  1  0  0  0  0
 19 21  1  0  0  0  0
 21 22  2  0  0  0  0
  1 25  1  0  0  0  0
  1 26  1  0  0  0  0
  1 27  1  0  0  0  0
  3 28  1  0  0  0  0
  5 29  1  0  0  0  0
  8 30  1  0  0  0  0
  9 31  1  0  0  0  0
 10 32  1  0  0  0  0
 13 33  1  0  0  0  0
 14 34  1  0  0  0  0
 14 35  1  0  0  0  0
 15 36  1  0  0  0  0
 15 37  1  0  0  0  0
 16 38  1  0  0  0  0
 18 39  1  0  0  0  0
 20 40  1  0  0  0  0
 20 41  1  0  0  0  0
 20 42  1  0  0  0  0
 23 43  1  0  0  0  0
 24 44  1  0  0  0  0
M  END
> <r_user_dG.exp>
-9.473

$$$$
