CAT-13j
  -OEChem-05192314073D
 Structure written by MMmdl.
 44 47  0     1  0  0  0  0  0999 V2000
   11.6961   -2.2645    1.2649 C   0  0  0  0  0  0  0  0  0  0  0  0
   13.0215   -2.5154    0.6888 N   0  0  0  0  0  0  0  0  0  0  0  0
   14.1987   -2.5219    1.3336 C   0  0  0  0  0  0  0  0  0  0  0  0
   14.3751   -2.3542    2.6485 N   0  0  0  0  0  0  0  0  0  0  0  0
   15.2238   -2.7253    0.5042 N   0  0  0  0  0  0  0  0  0  0  0  0
   14.7664   -3.0195   -0.8502 C   0  0  1  0  0  0  0  0  0  0  0  0
   15.3113   -1.9904   -1.8759 C   0  0  0  0  0  0  0  0  0  0  0  0
   15.6769   -2.3426   -3.1986 C   0  0  0  0  0  0  0  0  0  0  0  0
   16.1753   -1.3675   -4.0760 C   0  0  0  0  0  0  0  0  0  0  0  0
   16.1926   -0.0120   -3.7018 C   0  0  0  0  0  0  0  0  0  0  0  0
   15.7284    0.3995   -2.4340 C   0  0  0  0  0  0  0  0  0  0  0  0
   15.5348    1.8413   -2.1135 C   0  0  0  0  0  0  0  0  0  0  0  0
   15.2021    2.7617   -3.1388 C   0  0  0  0  0  0  0  0  0  0  0  0
   14.8789    4.1032   -2.8499 C   0  0  0  0  0  0  0  0  0  0  0  0
   14.8908    4.5603   -1.5223 C   0  0  0  0  0  0  0  0  0  0  0  0
   15.2551    3.6784   -0.4913 C   0  0  0  0  0  0  0  0  0  0  0  0
   15.2846    4.2505    1.1365 Cl  0  0  0  0  0  0  0  0  0  0  0  0
   15.5764    2.3370   -0.7867 C   0  0  0  0  0  0  0  0  0  0  0  0
   15.3578   -0.6128   -1.5167 C   0  0  0  0  0  0  0  0  0  0  0  0
   15.0379   -4.5318   -1.0582 C   0  0  0  0  0  0  0  0  0  0  0  0
   16.1911   -4.9954   -1.7182 C   0  0  0  0  0  0  0  0  0  0  0  0
   16.4400   -6.3687   -1.8207 C   0  0  0  0  0  0  0  0  0  0  0  0
   15.5365   -7.2607   -1.2303 C   0  0  0  0  0  0  0  0  0  0  0  0
   14.4411   -6.7307   -0.5352 C   0  0  0  0  0  0  0  0  0  0  0  0
   14.2062   -5.4075   -0.4355 N   0  0  0  0  0  0  0  0  0  0  0  0
   13.2558   -2.7592   -0.6949 C   0  0  0  0  0  0  0  0  0  0  0  0
   12.3797   -2.7353   -1.5715 O   0  0  0  0  0  0  0  0  0  0  0  0
   10.9338   -2.3300    0.4746 H   0  0  0  0  0  0  0  0  0  0  0  0
   11.4854   -3.0155    2.0405 H   0  0  0  0  0  0  0  0  0  0  0  0
   11.6750   -1.2597    1.7121 H   0  0  0  0  0  0  0  0  0  0  0  0
   15.2964   -2.3794    3.0366 H   0  0  0  0  0  0  0  0  0  0  0  0
   13.5857   -2.2036    3.2437 H   0  0  0  0  0  0  0  0  0  0  0  0
   15.5717   -3.3643   -3.5325 H   0  0  0  0  0  0  0  0  0  0  0  0
   16.5485   -1.6603   -5.0462 H   0  0  0  0  0  0  0  0  0  0  0  0
   16.5671    0.7260   -4.3957 H   0  0  0  0  0  0  0  0  0  0  0  0
   15.1960    2.4274   -4.1657 H   0  0  0  0  0  0  0  0  0  0  0  0
   14.6217    4.7804   -3.6510 H   0  0  0  0  0  0  0  0  0  0  0  0
   14.6221    5.5815   -1.2957 H   0  0  0  0  0  0  0  0  0  0  0  0
   15.8604    1.6730    0.0163 H   0  0  0  0  0  0  0  0  0  0  0  0
   15.1006   -0.3301   -0.5066 H   0  0  0  0  0  0  0  0  0  0  0  0
   16.8864   -4.2890   -2.1471 H   0  0  0  0  0  0  0  0  0  0  0  0
   17.3113   -6.7331   -2.3446 H   0  0  0  0  0  0  0  0  0  0  0  0
   15.6799   -8.3283   -1.3085 H   0  0  0  0  0  0  0  0  0  0  0  0
   13.7541   -7.4137   -0.0578 H   0  0  0  0  0  0  0  0  0  0  0  0
  1  2  1  0  0  0  0
  2  3  1  0  0  0  0
  2 26  1  0  0  0  0
  3  4  1  0  0  0  0
  3  5  2  0  0  0  0
  5  6  1  0  0  0  0
  6  7  1  0  0  0  0
  6 20  1  0  0  0  0
  6 26  1  0  0  0  0
  7  8  2  0  0  0  0
  7 19  1  0  0  0  0
  8  9  1  0  0  0  0
  9 10  2  0  0  0  0
 10 11  1  0  0  0  0
 11 12  1  0  0  0  0
 11 19  2  0  0  0  0
 12 13  2  0  0  0  0
 12 18  1  0  0  0  0
 13 14  1  0  0  0  0
 14 15  2  0  0  0  0
 15 16  1  0  0  0  0
 16 17  1  0  0  0  0
 16 18  2  0  0  0  0
 20 21  2  0  0  0  0
 20 25  1  0  0  0  0
 21 22  1  0  0  0  0
 22 23  2  0  0  0  0
 23 24  1  0  0  0  0
 24 25  2  0  0  0  0
 26 27  2  0  0  0  0
  1 28  1  0  0  0  0
  1 29  1  0  0  0  0
  1 30  1  0  0  0  0
  4 31  1  0  0  0  0
  4 32  1  0  0  0  0
  8 33  1  0  0  0  0
  9 34  1  0  0  0  0
 10 35  1  0  0  0  0
 13 36  1  0  0  0  0
 14 37  1  0  0  0  0
 15 38  1  0  0  0  0
 18 39  1  0  0  0  0
 19 40  1  0  0  0  0
 21 41  1  0  0  0  0
 22 42  1  0  0  0  0
 23 43  1  0  0  0  0
 24 44  1  0  0  0  0
M  END
> <r_user_dG.exp>
-8.733

$$$$
CAT-13j
  -OEChem-05192314073D
 Structure written by MMmdl.
 44 47  0     1  0  0  0  0  0999 V2000
   11.6961   -2.2645    1.2649 C   0  0  0  0  0  0  0  0  0  0  0  0
   13.0215   -2.5154    0.6888 N   0  0  0  0  0  0  0  0  0  0  0  0
   14.1987   -2.5219    1.3336 C   0  0  0  0  0  0  0  0  0  0  0  0
   14.3751   -2.3542    2.6485 N   0  0  0  0  0  0  0  0  0  0  0  0
   15.2238   -2.7253    0.5042 N   0  0  0  0  0  0  0  0  0  0  0  0
   14.7664   -3.0195   -0.8502 C   0  0  1  0  0  0  0  0  0  0  0  0
   15.3113   -1.9904   -1.8759 C   0  0  0  0  0  0  0  0  0  0  0  0
   15.6769   -2.3426   -3.1986 C   0  0  0  0  0  0  0  0  0  0  0  0
   16.1753   -1.3675   -4.0760 C   0  0  0  0  0  0  0  0  0  0  0  0
   16.1926   -0.0120   -3.7018 C   0  0  0  0  0  0  0  0  0  0  0  0
   15.7284    0.3995   -2.4340 C   0  0  0  0  0  0  0  0  0  0  0  0
   15.5348    1.8413   -2.1135 C   0  0  0  0  0  0  0  0  0  0  0  0
   15.2021    2.7617   -3.1388 C   0  0  0  0  0  0  0  0  0  0  0  0
   14.8789    4.1032   -2.8499 C   0  0  0  0  0  0  0  0  0  0  0  0
   14.8908    4.5603   -1.5223 C   0  0  0  0  0  0  0  0  0  0  0  0
   15.2551    3.6784   -0.4913 C   0  0  0  0  0  0  0  0  0  0  0  0
   15.2846    4.2505    1.1365 Cl  0  0  0  0  0  0  0  0  0  0  0  0
   15.5764    2.3370   -0.7867 C   0  0  0  0  0  0  0  0  0  0  0  0
   15.3578   -0.6128   -1.5167 C   0  0  0  0  0  0  0  0  0  0  0  0
   15.0379   -4.5318   -1.0582 C   0  0  0  0  0  0  0  0  0  0  0  0
   16.1911   -4.9954   -1.7182 C   0  0  0  0  0  0  0  0  0  0  0  0
   16.4400   -6.3687   -1.8207 C   0  0  0  0  0  0  0  0  0  0  0  0
   15.5365   -7.2607   -1.2303 C   0  0  0  0  0  0  0  0  0  0  0  0
   14.4411   -6.7307   -0.5352 C   0  0  0  0  0  0  0  0  0  0  0  0
   14.2062   -5.4075   -0.4355 N   0  0  0  0  0  0  0  0  0  0  0  0
   13.2558   -2.7592   -0.6949 C   0  0  0  0  0  0  0  0  0  0  0  0
   12.3797   -2.7353   -1.5715 O   0  0  0  0  0  0  0  0  0  0  0  0
   10.9338   -2.3300    0.4746 H   0  0  0  0  0  0  0  0  0  0  0  0
   11.4854   -3.0155    2.0405 H   0  0  0  0  0  0  0  0  0  0  0  0
   11.6750   -1.2597    1.7121 H   0  0  0  0  0  0  0  0  0  0  0  0
   15.3402   -2.4013    2.9060 H   0  0  0  0  0  0  0  0  0  0  0  0
   16.1850   -2.6816    0.7764 H   0  0  0  0  0  0  0  0  0  0  0  0
   15.5717   -3.3643   -3.5325 H   0  0  0  0  0  0  0  0  0  0  0  0
   16.5485   -1.6603   -5.0462 H   0  0  0  0  0  0  0  0  0  0  0  0
   16.5671    0.7260   -4.3957 H   0  0  0  0  0  0  0  0  0  0  0  0
   15.1960    2.4274   -4.1657 H   0  0  0  0  0  0  0  0  0  0  0  0
   14.6217    4.7804   -3.6510 H   0  0  0  0  0  0  0  0  0  0  0  0
   14.6221    5.5815   -1.2957 H   0  0  0  0  0  0  0  0  0  0  0  0
   15.8604    1.6730    0.0163 H   0  0  0  0  0  0  0  0  0  0  0  0
   15.1006   -0.3301   -0.5066 H   0  0  0  0  0  0  0  0  0  0  0  0
   16.8864   -4.2890   -2.1471 H   0  0  0  0  0  0  0  0  0  0  0  0
   17.3113   -6.7331   -2.3446 H   0  0  0  0  0  0  0  0  0  0  0  0
   15.6799   -8.3283   -1.3085 H   0  0  0  0  0  0  0  0  0  0  0  0
   13.7541   -7.4137   -0.0578 H   0  0  0  0  0  0  0  0  0  0  0  0
  1  2  1  0  0  0  0
  2  3  1  0  0  0  0
  2 26  1  0  0  0  0
  3  4  2  0  0  0  0
  3  5  1  0  0  0  0
  5  6  1  0  0  0  0
  6  7  1  0  0  0  0
  6 20  1  0  0  0  0
  6 26  1  0  0  0  0
  7  8  2  0  0  0  0
  7 19  1  0  0  0  0
  8  9  1  0  0  0  0
  9 10  2  0  0  0  0
 10 11  1  0  0  0  0
 11 12  1  0  0  0  0
 11 19  2  0  0  0  0
 12 13  2  0  0  0  0
 12 18  1  0  0  0  0
 13 14  1  0  0  0  0
 14 15  2  0  0  0  0
 15 16  1  0  0  0  0
 16 17  1  0  0  0  0
 16 18  2  0  0  0  0
 20 21  2  0  0  0  0
 20 25  1  0  0  0  0
 21 22  1  0  0  0  0
 22 23  2  0  0  0  0
 23 24  1  0  0  0  0
 24 25  2  0  0  0  0
 26 27  2  0  0  0  0
  1 28  1  0  0  0  0
  1 29  1  0  0  0  0
  1 30  1  0  0  0  0
  4 31  1  0  0  0  0
  5 32  1  0  0  0  0
  8 33  1  0  0  0  0
  9 34  1  0  0  0  0
 10 35  1  0  0  0  0
 13 36  1  0  0  0  0
 14 37  1  0  0  0  0
 15 38  1  0  0  0  0
 18 39  1  0  0  0  0
 19 40  1  0  0  0  0
 21 41  1  0  0  0  0
 22 42  1  0  0  0  0
 23 43  1  0  0  0  0
 24 44  1  0  0  0  0
M  END
> <r_user_dG.exp>
-8.733

$$$$
