CAT-13a
  -OEChem-05192314073D
 Structure written by MMmdl.
 38 40  0     1  0  0  0  0  0999 V2000
   11.8131   -2.0987    1.0830 C   0  0  0  0  0  0  0  0  0  0  0  0
   13.1334   -2.4685    0.5575 N   0  0  0  0  0  0  0  0  0  0  0  0
   14.2851   -2.5312    1.2456 C   0  0  0  0  0  0  0  0  0  0  0  0
   14.4325   -2.3246    2.5605 N   0  0  0  0  0  0  0  0  0  0  0  0
   15.3127   -2.8534    0.4546 N   0  0  0  0  0  0  0  0  0  0  0  0
   14.9092   -3.0355   -0.9381 C   0  0  2  0  0  0  0  0  0  0  0  0
   15.1892   -4.4889   -1.3783 C   0  0  0  0  0  0  0  0  0  0  0  0
   15.5119   -1.9635   -1.8624 C   0  0  0  0  0  0  0  0  0  0  0  0
   16.1763   -2.3128   -3.0620 C   0  0  0  0  0  0  0  0  0  0  0  0
   16.6330   -1.3124   -3.9325 C   0  0  0  0  0  0  0  0  0  0  0  0
   16.4138    0.0423   -3.6288 C   0  0  0  0  0  0  0  0  0  0  0  0
   15.7987    0.4335   -2.4212 C   0  0  0  0  0  0  0  0  0  0  0  0
   15.5499    1.8627   -2.1170 C   0  0  0  0  0  0  0  0  0  0  0  0
   15.2538    2.7805   -3.1519 C   0  0  0  0  0  0  0  0  0  0  0  0
   14.9338    4.1236   -2.8692 C   0  0  0  0  0  0  0  0  0  0  0  0
   14.9160    4.5776   -1.5397 C   0  0  0  0  0  0  0  0  0  0  0  0
   15.2415    3.6932   -0.4988 C   0  0  0  0  0  0  0  0  0  0  0  0
   15.2369    4.2623    1.1298 Cl  0  0  0  0  0  0  0  0  0  0  0  0
   15.5569    2.3502   -0.7887 C   0  0  0  0  0  0  0  0  0  0  0  0
   15.3759   -0.5881   -1.5399 C   0  0  0  0  0  0  0  0  0  0  0  0
   13.3951   -2.8048   -0.8053 C   0  0  0  0  0  0  0  0  0  0  0  0
   12.5342   -2.8850   -1.6872 O   0  0  0  0  0  0  0  0  0  0  0  0
   11.0703   -2.1413    0.2728 H   0  0  0  0  0  0  0  0  0  0  0  0
   11.5264   -2.8001    1.8804 H   0  0  0  0  0  0  0  0  0  0  0  0
   11.8534   -1.0775    1.4899 H   0  0  0  0  0  0  0  0  0  0  0  0
   15.3353   -2.4101    2.9820 H   0  0  0  0  0  0  0  0  0  0  0  0
   13.6398   -2.0849    3.1209 H   0  0  0  0  0  0  0  0  0  0  0  0
   14.8837   -4.6203   -2.4268 H   0  0  0  0  0  0  0  0  0  0  0  0
   16.2641   -4.7009   -1.2803 H   0  0  0  0  0  0  0  0  0  0  0  0
   14.6194   -5.1811   -0.7410 H   0  0  0  0  0  0  0  0  0  0  0  0
   16.3322   -3.3528   -3.3080 H   0  0  0  0  0  0  0  0  0  0  0  0
   17.1545   -1.5837   -4.8385 H   0  0  0  0  0  0  0  0  0  0  0  0
   16.7227    0.7993   -4.3345 H   0  0  0  0  0  0  0  0  0  0  0  0
   15.2733    2.4455   -4.1785 H   0  0  0  0  0  0  0  0  0  0  0  0
   14.7021    4.8043   -3.6750 H   0  0  0  0  0  0  0  0  0  0  0  0
   14.6533    5.6017   -1.3194 H   0  0  0  0  0  0  0  0  0  0  0  0
   15.8090    1.6797    0.0195 H   0  0  0  0  0  0  0  0  0  0  0  0
   14.9361   -0.3135   -0.5925 H   0  0  0  0  0  0  0  0  0  0  0  0
  1  2  1  0  0  0  0
  2  3  1  0  0  0  0
  2 21  1  0  0  0  0
  3  4  1  0  0  0  0
  3  5  2  0  0  0  0
  5  6  1  0  0  0  0
  6  7  1  0  0  0  0
  6  8  1  0  0  0  0
  6 21  1  0  0  0  0
  8  9  2  0  0  0  0
  8 20  1  0  0  0  0
  9 10  1  0  0  0  0
 10 11  2  0  0  0  0
 11 12  1  0  0  0  0
 12 13  1  0  0  0  0
 12 20  2  0  0  0  0
 13 14  2  0  0  0  0
 13 19  1  0  0  0  0
 14 15  1  0  0  0  0
 15 16  2  0  0  0  0
 16 17  1  0  0  0  0
 17 18  1  0  0  0  0
 17 19  2  0  0  0  0
 21 22  2  0  0  0  0
  1 23  1  0  0  0  0
  1 24  1  0  0  0  0
  1 25  1  0  0  0  0
  4 26  1  0  0  0  0
  4 27  1  0  0  0  0
  7 28  1  0  0  0  0
  7 29  1  0  0  0  0
  7 30  1  0  0  0  0
  9 31  1  0  0  0  0
 10 32  1  0  0  0  0
 11 33  1  0  0  0  0
 14 34  1  0  0  0  0
 15 35  1  0  0  0  0
 16 36  1  0  0  0  0
 19 37  1  0  0  0  0
 20 38  1  0  0  0  0
M  END
> <i_m_stars>
2

> <r_user_dG.exp>
-8.843

$$$$
CAT-13a
  -OEChem-05192314073D
 Structure written by MMmdl.
 38 40  0     1  0  0  0  0  0999 V2000
   11.8131   -2.0987    1.0830 C   0  0  0  0  0  0  0  0  0  0  0  0
   13.1334   -2.4685    0.5575 N   0  0  0  0  0  0  0  0  0  0  0  0
   14.2851   -2.5312    1.2456 C   0  0  0  0  0  0  0  0  0  0  0  0
   14.4325   -2.3246    2.5605 N   0  0  0  0  0  0  0  0  0  0  0  0
   15.3127   -2.8534    0.4546 N   0  0  0  0  0  0  0  0  0  0  0  0
   14.9092   -3.0355   -0.9381 C   0  0  2  0  0  0  0  0  0  0  0  0
   15.1892   -4.4889   -1.3783 C   0  0  0  0  0  0  0  0  0  0  0  0
   15.5119   -1.9635   -1.8624 C   0  0  0  0  0  0  0  0  0  0  0  0
   16.1763   -2.3128   -3.0620 C   0  0  0  0  0  0  0  0  0  0  0  0
   16.6330   -1.3124   -3.9325 C   0  0  0  0  0  0  0  0  0  0  0  0
   16.4138    0.0423   -3.6288 C   0  0  0  0  0  0  0  0  0  0  0  0
   15.7987    0.4335   -2.4212 C   0  0  0  0  0  0  0  0  0  0  0  0
   15.5499    1.8627   -2.1170 C   0  0  0  0  0  0  0  0  0  0  0  0
   15.2538    2.7805   -3.1519 C   0  0  0  0  0  0  0  0  0  0  0  0
   14.9338    4.1236   -2.8692 C   0  0  0  0  0  0  0  0  0  0  0  0
   14.9160    4.5776   -1.5397 C   0  0  0  0  0  0  0  0  0  0  0  0
   15.2415    3.6932   -0.4988 C   0  0  0  0  0  0  0  0  0  0  0  0
   15.2369    4.2623    1.1298 Cl  0  0  0  0  0  0  0  0  0  0  0  0
   15.5569    2.3502   -0.7887 C   0  0  0  0  0  0  0  0  0  0  0  0
   15.3759   -0.5881   -1.5399 C   0  0  0  0  0  0  0  0  0  0  0  0
   13.3951   -2.8048   -0.8053 C   0  0  0  0  0  0  0  0  0  0  0  0
   12.5342   -2.8850   -1.6872 O   0  0  0  0  0  0  0  0  0  0  0  0
   11.0703   -2.1413    0.2728 H   0  0  0  0  0  0  0  0  0  0  0  0
   11.5264   -2.8001    1.8804 H   0  0  0  0  0  0  0  0  0  0  0  0
   11.8534   -1.0775    1.4899 H   0  0  0  0  0  0  0  0  0  0  0  0
   15.3814   -2.4409    2.8539 H   0  0  0  0  0  0  0  0  0  0  0  0
   16.2527   -2.9582    0.7793 H   0  0  0  0  0  0  0  0  0  0  0  0
   14.8837   -4.6203   -2.4268 H   0  0  0  0  0  0  0  0  0  0  0  0
   16.2641   -4.7009   -1.2803 H   0  0  0  0  0  0  0  0  0  0  0  0
   14.6194   -5.1811   -0.7410 H   0  0  0  0  0  0  0  0  0  0  0  0
   16.3322   -3.3528   -3.3080 H   0  0  0  0  0  0  0  0  0  0  0  0
   17.1545   -1.5837   -4.8385 H   0  0  0  0  0  0  0  0  0  0  0  0
   16.7227    0.7993   -4.3345 H   0  0  0  0  0  0  0  0  0  0  0  0
   15.2733    2.4455   -4.1785 H   0  0  0  0  0  0  0  0  0  0  0  0
   14.7021    4.8043   -3.6750 H   0  0  0  0  0  0  0  0  0  0  0  0
   14.6533    5.6017   -1.3194 H   0  0  0  0  0  0  0  0  0  0  0  0
   15.8090    1.6797    0.0195 H   0  0  0  0  0  0  0  0  0  0  0  0
   14.9361   -0.3135   -0.5925 H   0  0  0  0  0  0  0  0  0  0  0  0
  1  2  1  0  0  0  0
  2  3  1  0  0  0  0
  2 21  1  0  0  0  0
  3  4  2  0  0  0  0
  3  5  1  0  0  0  0
  5  6  1  0  0  0  0
  6  7  1  0  0  0  0
  6  8  1  0  0  0  0
  6 21  1  0  0  0  0
  8  9  2  0  0  0  0
  8 20  1  0  0  0  0
  9 10  1  0  0  0  0
 10 11  2  0  0  0  0
 11 12  1  0  0  0  0
 12 13  1  0  0  0  0
 12 20  2  0  0  0  0
 13 14  2  0  0  0  0
 13 19  1  0  0  0  0
 14 15  1  0  0  0  0
 15 16  2  0  0  0  0
 16 17  1  0  0  0  0
 17 18  1  0  0  0  0
 17 19  2  0  0  0  0
 21 22  2  0  0  0  0
  1 23  1  0  0  0  0
  1 24  1  0  0  0  0
  1 25  1  0  0  0  0
  4 26  1  0  0  0  0
  5 27  1  0  0  0  0
  7 28  1  0  0  0  0
  7 29  1  0  0  0  0
  7 30  1  0  0  0  0
  9 31  1  0  0  0  0
 10 32  1  0  0  0  0
 11 33  1  0  0  0  0
 14 34  1  0  0  0  0
 15 35  1  0  0  0  0
 16 36  1  0  0  0  0
 19 37  1  0  0  0  0
 20 38  1  0  0  0  0
M  END
> <i_m_stars>
2

> <r_user_dG.exp>
-8.843

$$$$
