CAT-4m
  -OEChem-05162309453D
 Structure written by MMmdl.
 47 50  0     1  0  0  0  0  0999 V2000
   15.2085    4.1243    0.7011 C   0  0  0  0  0  0  0  0  0  0  0  0
   15.3093    3.5222   -0.6861 C   0  0  0  0  0  0  0  0  0  0  0  0
   15.1283    4.3252   -1.8220 C   0  0  0  0  0  0  0  0  0  0  0  0
   15.2147    3.8466   -3.0718 N   0  0  0  0  0  0  0  0  0  0  0  0
   15.4530    2.5306   -3.2366 C   0  0  0  0  0  0  0  0  0  0  0  0
   15.6153    1.6087   -2.1788 C   0  0  0  0  0  0  0  0  0  0  0  0
   15.7868    0.1570   -2.4348 C   0  0  0  0  0  0  0  0  0  0  0  0
   16.3707   -0.3092   -3.6317 C   0  0  0  0  0  0  0  0  0  0  0  0
   16.5066   -1.6828   -3.8950 C   0  0  0  0  0  0  0  0  0  0  0  0
   16.0172   -2.6317   -2.9816 C   0  0  0  0  0  0  0  0  0  0  0  0
   15.4025   -2.2056   -1.7814 C   0  0  0  0  0  0  0  0  0  0  0  0
   14.8026   -3.2086   -0.7801 C   0  0  1  0  0  0  0  0  0  0  0  0
   15.1320   -4.6947   -1.0609 C   0  0  0  0  0  0  0  0  0  0  0  0
   14.2712   -5.5707   -1.7659 C   0  0  0  0  0  0  0  0  0  0  0  0
   14.6073   -6.9273   -1.9484 C   0  0  0  0  0  0  0  0  0  0  0  0
   15.8240   -7.4275   -1.4572 C   0  0  0  0  0  0  0  0  0  0  0  0
   16.7057   -6.5689   -0.7893 C   0  0  0  0  0  0  0  0  0  0  0  0
   16.3487   -5.2261   -0.5817 C   0  0  0  0  0  0  0  0  0  0  0  0
   15.2233   -2.8833    0.5825 N   0  0  0  0  0  0  0  0  0  0  0  0
   14.1991   -2.6017    1.3845 C   0  0  0  0  0  0  0  0  0  0  0  0
   14.3717   -2.3498    2.6843 N   0  0  0  0  0  0  0  0  0  0  0  0
   13.0321   -2.6160    0.7246 N   0  0  0  0  0  0  0  0  0  0  0  0
   11.7078   -2.2824    1.2642 C   0  0  0  0  0  0  0  0  0  0  0  0
   13.2839   -2.9557   -0.6374 C   0  0  0  0  0  0  0  0  0  0  0  0
   12.4104   -2.9973   -1.5122 O   0  0  0  0  0  0  0  0  0  0  0  0
   15.3260   -0.8127   -1.5146 C   0  0  0  0  0  0  0  0  0  0  0  0
   15.5648    2.1498   -0.8756 C   0  0  0  0  0  0  0  0  0  0  0  0
   14.1665    4.0712    1.0496 H   0  0  0  0  0  0  0  0  0  0  0  0
   15.8551    3.5634    1.3920 H   0  0  0  0  0  0  0  0  0  0  0  0
   15.5311    5.1754    0.6688 H   0  0  0  0  0  0  0  0  0  0  0  0
   14.9100    5.3739   -1.6841 H   0  0  0  0  0  0  0  0  0  0  0  0
   15.5248    2.1550   -4.2466 H   0  0  0  0  0  0  0  0  0  0  0  0
   16.7210    0.4055   -4.3617 H   0  0  0  0  0  0  0  0  0  0  0  0
   16.9895   -2.0107   -4.8037 H   0  0  0  0  0  0  0  0  0  0  0  0
   16.1104   -3.6861   -3.1960 H   0  0  0  0  0  0  0  0  0  0  0  0
   13.3432   -5.1936   -2.1698 H   0  0  0  0  0  0  0  0  0  0  0  0
   13.9262   -7.5848   -2.4682 H   0  0  0  0  0  0  0  0  0  0  0  0
   16.0782   -8.4682   -1.5937 H   0  0  0  0  0  0  0  0  0  0  0  0
   17.6569   -6.9377   -0.4350 H   0  0  0  0  0  0  0  0  0  0  0  0
   17.0249   -4.5816   -0.0397 H   0  0  0  0  0  0  0  0  0  0  0  0
   15.2899   -2.3697    3.0798 H   0  0  0  0  0  0  0  0  0  0  0  0
   13.5827   -2.1412    3.2623 H   0  0  0  0  0  0  0  0  0  0  0  0
   10.9511   -2.3903    0.4731 H   0  0  0  0  0  0  0  0  0  0  0  0
   11.4687   -2.9623    2.0952 H   0  0  0  0  0  0  0  0  0  0  0  0
   11.7114   -1.2446    1.6289 H   0  0  0  0  0  0  0  0  0  0  0  0
   14.9017   -0.4832   -0.5777 H   0  0  0  0  0  0  0  0  0  0  0  0
   15.7227    1.5090   -0.0207 H   0  0  0  0  0  0  0  0  0  0  0  0
  1  2  1  0  0  0  0
  2  3  2  0  0  0  0
  2 27  1  0  0  0  0
  3  4  1  0  0  0  0
  4  5  2  0  0  0  0
  5  6  1  0  0  0  0
  6  7  1  0  0  0  0
  6 27  2  0  0  0  0
  7  8  2  0  0  0  0
  7 26  1  0  0  0  0
  8  9  1  0  0  0  0
  9 10  2  0  0  0  0
 10 11  1  0  0  0  0
 11 12  1  0  0  0  0
 11 26  2  0  0  0  0
 12 13  1  0  0  0  0
 12 19  1  0  0  0  0
 12 24  1  0  0  0  0
 13 14  2  0  0  0  0
 13 18  1  0  0  0  0
 14 15  1  0  0  0  0
 15 16  2  0  0  0  0
 16 17  1  0  0  0  0
 17 18  2  0  0  0  0
 19 20  2  0  0  0  0
 20 21  1  0  0  0  0
 20 22  1  0  0  0  0
 22 23  1  0  0  0  0
 22 24  1  0  0  0  0
 24 25  2  0  0  0  0
  1 28  1  0  0  0  0
  1 29  1  0  0  0  0
  1 30  1  0  0  0  0
  3 31  1  0  0  0  0
  5 32  1  0  0  0  0
  8 33  1  0  0  0  0
  9 34  1  0  0  0  0
 10 35  1  0  0  0  0
 14 36  1  0  0  0  0
 15 37  1  0  0  0  0
 16 38  1  0  0  0  0
 17 39  1  0  0  0  0
 18 40  1  0  0  0  0
 21 41  1  0  0  0  0
 21 42  1  0  0  0  0
 23 43  1  0  0  0  0
 23 44  1  0  0  0  0
 23 45  1  0  0  0  0
 26 46  1  0  0  0  0
 27 47  1  0  0  0  0
M  END
> <r_user_dG.exp>
-9.153

$$$$
CAT-4m
  -OEChem-05162309453D
 Structure written by MMmdl.
 47 50  0     1  0  0  0  0  0999 V2000
   15.2085    4.1243    0.7011 C   0  0  0  0  0  0  0  0  0  0  0  0
   15.3093    3.5222   -0.6861 C   0  0  0  0  0  0  0  0  0  0  0  0
   15.1283    4.3252   -1.8220 C   0  0  0  0  0  0  0  0  0  0  0  0
   15.2147    3.8466   -3.0718 N   0  0  0  0  0  0  0  0  0  0  0  0
   15.4530    2.5306   -3.2366 C   0  0  0  0  0  0  0  0  0  0  0  0
   15.6153    1.6087   -2.1788 C   0  0  0  0  0  0  0  0  0  0  0  0
   15.7868    0.1570   -2.4348 C   0  0  0  0  0  0  0  0  0  0  0  0
   16.3707   -0.3092   -3.6317 C   0  0  0  0  0  0  0  0  0  0  0  0
   16.5066   -1.6828   -3.8950 C   0  0  0  0  0  0  0  0  0  0  0  0
   16.0172   -2.6317   -2.9816 C   0  0  0  0  0  0  0  0  0  0  0  0
   15.4025   -2.2056   -1.7814 C   0  0  0  0  0  0  0  0  0  0  0  0
   14.8026   -3.2086   -0.7801 C   0  0  1  0  0  0  0  0  0  0  0  0
   15.1320   -4.6947   -1.0609 C   0  0  0  0  0  0  0  0  0  0  0  0
   14.2712   -5.5707   -1.7659 C   0  0  0  0  0  0  0  0  0  0  0  0
   14.6073   -6.9273   -1.9484 C   0  0  0  0  0  0  0  0  0  0  0  0
   15.8240   -7.4275   -1.4572 C   0  0  0  0  0  0  0  0  0  0  0  0
   16.7057   -6.5689   -0.7893 C   0  0  0  0  0  0  0  0  0  0  0  0
   16.3487   -5.2261   -0.5817 C   0  0  0  0  0  0  0  0  0  0  0  0
   15.2233   -2.8833    0.5825 N   0  0  0  0  0  0  0  0  0  0  0  0
   14.1991   -2.6017    1.3845 C   0  0  0  0  0  0  0  0  0  0  0  0
   14.3717   -2.3498    2.6843 N   0  0  0  0  0  0  0  0  0  0  0  0
   13.0321   -2.6160    0.7246 N   0  0  0  0  0  0  0  0  0  0  0  0
   11.7078   -2.2824    1.2642 C   0  0  0  0  0  0  0  0  0  0  0  0
   13.2839   -2.9557   -0.6374 C   0  0  0  0  0  0  0  0  0  0  0  0
   12.4104   -2.9973   -1.5122 O   0  0  0  0  0  0  0  0  0  0  0  0
   15.3260   -0.8127   -1.5146 C   0  0  0  0  0  0  0  0  0  0  0  0
   15.5648    2.1498   -0.8756 C   0  0  0  0  0  0  0  0  0  0  0  0
   14.1665    4.0712    1.0496 H   0  0  0  0  0  0  0  0  0  0  0  0
   15.8551    3.5634    1.3920 H   0  0  0  0  0  0  0  0  0  0  0  0
   15.5311    5.1754    0.6688 H   0  0  0  0  0  0  0  0  0  0  0  0
   14.9100    5.3739   -1.6841 H   0  0  0  0  0  0  0  0  0  0  0  0
   15.5248    2.1550   -4.2466 H   0  0  0  0  0  0  0  0  0  0  0  0
   16.7210    0.4055   -4.3617 H   0  0  0  0  0  0  0  0  0  0  0  0
   16.9895   -2.0107   -4.8037 H   0  0  0  0  0  0  0  0  0  0  0  0
   16.1104   -3.6861   -3.1960 H   0  0  0  0  0  0  0  0  0  0  0  0
   13.3432   -5.1936   -2.1698 H   0  0  0  0  0  0  0  0  0  0  0  0
   13.9262   -7.5848   -2.4682 H   0  0  0  0  0  0  0  0  0  0  0  0
   16.0782   -8.4682   -1.5937 H   0  0  0  0  0  0  0  0  0  0  0  0
   17.6569   -6.9377   -0.4350 H   0  0  0  0  0  0  0  0  0  0  0  0
   17.0249   -4.5816   -0.0397 H   0  0  0  0  0  0  0  0  0  0  0  0
   16.1781   -2.8735    0.8796 H   0  0  0  0  0  0  0  0  0  0  0  0
   13.5056   -2.1624    3.1478 H   0  0  0  0  0  0  0  0  0  0  0  0
   10.9511   -2.3903    0.4731 H   0  0  0  0  0  0  0  0  0  0  0  0
   11.4687   -2.9623    2.0952 H   0  0  0  0  0  0  0  0  0  0  0  0
   11.7114   -1.2446    1.6289 H   0  0  0  0  0  0  0  0  0  0  0  0
   14.9017   -0.4832   -0.5777 H   0  0  0  0  0  0  0  0  0  0  0  0
   15.7227    1.5090   -0.0207 H   0  0  0  0  0  0  0  0  0  0  0  0
  1  2  1  0  0  0  0
  2  3  2  0  0  0  0
  2 27  1  0  0  0  0
  3  4  1  0  0  0  0
  4  5  2  0  0  0  0
  5  6  1  0  0  0  0
  6  7  1  0  0  0  0
  6 27  2  0  0  0  0
  7  8  2  0  0  0  0
  7 26  1  0  0  0  0
  8  9  1  0  0  0  0
  9 10  2  0  0  0  0
 10 11  1  0  0  0  0
 11 12  1  0  0  0  0
 11 26  2  0  0  0  0
 12 13  1  0  0  0  0
 12 19  1  0  0  0  0
 12 24  1  0  0  0  0
 13 14  2  0  0  0  0
 13 18  1  0  0  0  0
 14 15  1  0  0  0  0
 15 16  2  0  0  0  0
 16 17  1  0  0  0  0
 17 18  2  0  0  0  0
 19 20  1  0  0  0  0
 20 21  2  0  0  0  0
 20 22  1  0  0  0  0
 22 23  1  0  0  0  0
 22 24  1  0  0  0  0
 24 25  2  0  0  0  0
  1 28  1  0  0  0  0
  1 29  1  0  0  0  0
  1 30  1  0  0  0  0
  3 31  1  0  0  0  0
  5 32  1  0  0  0  0
  8 33  1  0  0  0  0
  9 34  1  0  0  0  0
 10 35  1  0  0  0  0
 14 36  1  0  0  0  0
 15 37  1  0  0  0  0
 16 38  1  0  0  0  0
 17 39  1  0  0  0  0
 18 40  1  0  0  0  0
 19 41  1  0  0  0  0
 21 42  1  0  0  0  0
 23 43  1  0  0  0  0
 23 44  1  0  0  0  0
 23 45  1  0  0  0  0
 26 46  1  0  0  0  0
 27 47  1  0  0  0  0
M  END
> <r_user_dG.exp>
-9.153

$$$$
