CAT-13i
  -OEChem-05162309453D
 Structure written by MMmdl.
 45 48  0     1  0  0  0  0  0999 V2000
   11.7066   -2.3243    1.1522 C   0  0  0  0  0  0  0  0  0  0  0  0
   13.0800   -2.5317    0.6754 N   0  0  0  0  0  0  0  0  0  0  0  0
   14.2034   -2.4301    1.3983 C   0  0  0  0  0  0  0  0  0  0  0  0
   14.2886   -2.2311    2.7108 N   0  0  0  0  0  0  0  0  0  0  0  0
   15.2911   -2.5895    0.6543 N   0  0  0  0  0  0  0  0  0  0  0  0
   14.9789   -2.9821   -0.7080 C   0  0  2  0  0  0  0  0  0  0  0  0
   15.4754   -4.4511   -0.8097 C   0  0  0  0  0  0  0  0  0  0  0  0
   15.0159   -5.2708   -1.9954 C   0  0  0  0  0  0  0  0  0  0  0  0
   16.0514   -5.9027   -2.8811 C   0  0  0  0  0  0  0  0  0  0  0  0
   15.1860   -6.7771   -2.0216 C   0  0  0  0  0  0  0  0  0  0  0  0
   15.5532   -1.9672   -1.7162 C   0  0  0  0  0  0  0  0  0  0  0  0
   16.2219   -2.3572   -2.8994 C   0  0  0  0  0  0  0  0  0  0  0  0
   16.6507   -1.3904   -3.8245 C   0  0  0  0  0  0  0  0  0  0  0  0
   16.4179   -0.0251   -3.5806 C   0  0  0  0  0  0  0  0  0  0  0  0
   15.8037    0.4089   -2.3876 C   0  0  0  0  0  0  0  0  0  0  0  0
   15.5510    1.8451   -2.1204 C   0  0  0  0  0  0  0  0  0  0  0  0
   15.2562    2.7420   -3.1736 C   0  0  0  0  0  0  0  0  0  0  0  0
   14.9250    4.0879   -2.9144 C   0  0  0  0  0  0  0  0  0  0  0  0
   14.8974    4.5661   -1.5934 C   0  0  0  0  0  0  0  0  0  0  0  0
   15.2242    3.7028   -0.5356 C   0  0  0  0  0  0  0  0  0  0  0  0
   15.2032    4.2948    1.0849 Cl  0  0  0  0  0  0  0  0  0  0  0  0
   15.5515    2.3585   -0.8014 C   0  0  0  0  0  0  0  0  0  0  0  0
   15.3871   -0.5807   -1.4698 C   0  0  0  0  0  0  0  0  0  0  0  0
   13.4407   -2.8723   -0.6618 C   0  0  0  0  0  0  0  0  0  0  0  0
   12.6320   -3.0299   -1.5816 O   0  0  0  0  0  0  0  0  0  0  0  0
   11.0022   -2.4799    0.3218 H   0  0  0  0  0  0  0  0  0  0  0  0
   11.4866   -3.0395    1.9584 H   0  0  0  0  0  0  0  0  0  0  0  0
   11.6022   -1.2980    1.5340 H   0  0  0  0  0  0  0  0  0  0  0  0
   15.1842   -2.1994    3.1546 H   0  0  0  0  0  0  0  0  0  0  0  0
   13.4571   -2.1132    3.2537 H   0  0  0  0  0  0  0  0  0  0  0  0
   16.5748   -4.4247   -0.8354 H   0  0  0  0  0  0  0  0  0  0  0  0
   15.1423   -4.9736    0.0992 H   0  0  0  0  0  0  0  0  0  0  0  0
   14.1210   -4.8912   -2.5103 H   0  0  0  0  0  0  0  0  0  0  0  0
   15.9149   -5.8996   -3.9726 H   0  0  0  0  0  0  0  0  0  0  0  0
   17.1194   -5.7867   -2.6448 H   0  0  0  0  0  0  0  0  0  0  0  0
   15.6182   -7.2977   -1.1544 H   0  0  0  0  0  0  0  0  0  0  0  0
   14.4137   -7.4107   -2.4821 H   0  0  0  0  0  0  0  0  0  0  0  0
   16.4041   -3.4039   -3.0932 H   0  0  0  0  0  0  0  0  0  0  0  0
   17.1607   -1.6968   -4.7258 H   0  0  0  0  0  0  0  0  0  0  0  0
   16.7147    0.7040   -4.3200 H   0  0  0  0  0  0  0  0  0  0  0  0
   15.2853    2.3898   -4.1942 H   0  0  0  0  0  0  0  0  0  0  0  0
   14.6920    4.7527   -3.7330 H   0  0  0  0  0  0  0  0  0  0  0  0
   14.6263    5.5921   -1.3929 H   0  0  0  0  0  0  0  0  0  0  0  0
   15.8085    1.7053    0.0194 H   0  0  0  0  0  0  0  0  0  0  0  0
   14.9243   -0.2694   -0.5450 H   0  0  0  0  0  0  0  0  0  0  0  0
  1  2  1  0  0  0  0
  2  3  1  0  0  0  0
  2 24  1  0  0  0  0
  3  4  1  0  0  0  0
  3  5  2  0  0  0  0
  5  6  1  0  0  0  0
  6  7  1  0  0  0  0
  6 11  1  0  0  0  0
  6 24  1  0  0  0  0
  7  8  1  0  0  0  0
  8  9  1  0  0  0  0
  8 10  1  0  0  0  0
  9 10  1  0  0  0  0
 11 12  2  0  0  0  0
 11 23  1  0  0  0  0
 12 13  1  0  0  0  0
 13 14  2  0  0  0  0
 14 15  1  0  0  0  0
 15 16  1  0  0  0  0
 15 23  2  0  0  0  0
 16 17  2  0  0  0  0
 16 22  1  0  0  0  0
 17 18  1  0  0  0  0
 18 19  2  0  0  0  0
 19 20  1  0  0  0  0
 20 21  1  0  0  0  0
 20 22  2  0  0  0  0
 24 25  2  0  0  0  0
  1 26  1  0  0  0  0
  1 27  1  0  0  0  0
  1 28  1  0  0  0  0
  4 29  1  0  0  0  0
  4 30  1  0  0  0  0
  7 31  1  0  0  0  0
  7 32  1  0  0  0  0
  8 33  1  0  0  0  0
  9 34  1  0  0  0  0
  9 35  1  0  0  0  0
 10 36  1  0  0  0  0
 10 37  1  0  0  0  0
 12 38  1  0  0  0  0
 13 39  1  0  0  0  0
 14 40  1  0  0  0  0
 17 41  1  0  0  0  0
 18 42  1  0  0  0  0
 19 43  1  0  0  0  0
 22 44  1  0  0  0  0
 23 45  1  0  0  0  0
M  END
> <r_user_dG.exp>
-9.273

$$$$
CAT-13i
  -OEChem-05162309453D
 Structure written by MMmdl.
 45 48  0     1  0  0  0  0  0999 V2000
   11.7066   -2.3243    1.1522 C   0  0  0  0  0  0  0  0  0  0  0  0
   13.0800   -2.5317    0.6754 N   0  0  0  0  0  0  0  0  0  0  0  0
   14.2034   -2.4301    1.3983 C   0  0  0  0  0  0  0  0  0  0  0  0
   14.2886   -2.2311    2.7108 N   0  0  0  0  0  0  0  0  0  0  0  0
   15.2911   -2.5895    0.6543 N   0  0  0  0  0  0  0  0  0  0  0  0
   14.9789   -2.9821   -0.7080 C   0  0  2  0  0  0  0  0  0  0  0  0
   15.4754   -4.4511   -0.8097 C   0  0  0  0  0  0  0  0  0  0  0  0
   15.0159   -5.2708   -1.9954 C   0  0  0  0  0  0  0  0  0  0  0  0
   16.0514   -5.9027   -2.8811 C   0  0  0  0  0  0  0  0  0  0  0  0
   15.1860   -6.7771   -2.0216 C   0  0  0  0  0  0  0  0  0  0  0  0
   15.5532   -1.9672   -1.7162 C   0  0  0  0  0  0  0  0  0  0  0  0
   16.2219   -2.3572   -2.8994 C   0  0  0  0  0  0  0  0  0  0  0  0
   16.6507   -1.3904   -3.8245 C   0  0  0  0  0  0  0  0  0  0  0  0
   16.4179   -0.0251   -3.5806 C   0  0  0  0  0  0  0  0  0  0  0  0
   15.8037    0.4089   -2.3876 C   0  0  0  0  0  0  0  0  0  0  0  0
   15.5510    1.8451   -2.1204 C   0  0  0  0  0  0  0  0  0  0  0  0
   15.2562    2.7420   -3.1736 C   0  0  0  0  0  0  0  0  0  0  0  0
   14.9250    4.0879   -2.9144 C   0  0  0  0  0  0  0  0  0  0  0  0
   14.8974    4.5661   -1.5934 C   0  0  0  0  0  0  0  0  0  0  0  0
   15.2242    3.7028   -0.5356 C   0  0  0  0  0  0  0  0  0  0  0  0
   15.2032    4.2948    1.0849 Cl  0  0  0  0  0  0  0  0  0  0  0  0
   15.5515    2.3585   -0.8014 C   0  0  0  0  0  0  0  0  0  0  0  0
   15.3871   -0.5807   -1.4698 C   0  0  0  0  0  0  0  0  0  0  0  0
   13.4407   -2.8723   -0.6618 C   0  0  0  0  0  0  0  0  0  0  0  0
   12.6320   -3.0299   -1.5816 O   0  0  0  0  0  0  0  0  0  0  0  0
   11.0022   -2.4799    0.3218 H   0  0  0  0  0  0  0  0  0  0  0  0
   11.4866   -3.0395    1.9584 H   0  0  0  0  0  0  0  0  0  0  0  0
   11.6022   -1.2980    1.5340 H   0  0  0  0  0  0  0  0  0  0  0  0
   15.2371   -2.2212    3.0274 H   0  0  0  0  0  0  0  0  0  0  0  0
   16.2217   -2.4542    0.9943 H   0  0  0  0  0  0  0  0  0  0  0  0
   16.5748   -4.4247   -0.8354 H   0  0  0  0  0  0  0  0  0  0  0  0
   15.1423   -4.9736    0.0992 H   0  0  0  0  0  0  0  0  0  0  0  0
   14.1210   -4.8912   -2.5103 H   0  0  0  0  0  0  0  0  0  0  0  0
   15.9149   -5.8996   -3.9726 H   0  0  0  0  0  0  0  0  0  0  0  0
   17.1194   -5.7867   -2.6448 H   0  0  0  0  0  0  0  0  0  0  0  0
   15.6182   -7.2977   -1.1544 H   0  0  0  0  0  0  0  0  0  0  0  0
   14.4137   -7.4107   -2.4821 H   0  0  0  0  0  0  0  0  0  0  0  0
   16.4041   -3.4039   -3.0932 H   0  0  0  0  0  0  0  0  0  0  0  0
   17.1607   -1.6968   -4.7258 H   0  0  0  0  0  0  0  0  0  0  0  0
   16.7147    0.7040   -4.3200 H   0  0  0  0  0  0  0  0  0  0  0  0
   15.2853    2.3898   -4.1942 H   0  0  0  0  0  0  0  0  0  0  0  0
   14.6920    4.7527   -3.7330 H   0  0  0  0  0  0  0  0  0  0  0  0
   14.6263    5.5921   -1.3929 H   0  0  0  0  0  0  0  0  0  0  0  0
   15.8085    1.7053    0.0194 H   0  0  0  0  0  0  0  0  0  0  0  0
   14.9243   -0.2694   -0.5450 H   0  0  0  0  0  0  0  0  0  0  0  0
  1  2  1  0  0  0  0
  2  3  1  0  0  0  0
  2 24  1  0  0  0  0
  3  4  2  0  0  0  0
  3  5  1  0  0  0  0
  5  6  1  0  0  0  0
  6  7  1  0  0  0  0
  6 11  1  0  0  0  0
  6 24  1  0  0  0  0
  7  8  1  0  0  0  0
  8  9  1  0  0  0  0
  8 10  1  0  0  0  0
  9 10  1  0  0  0  0
 11 12  2  0  0  0  0
 11 23  1  0  0  0  0
 12 13  1  0  0  0  0
 13 14  2  0  0  0  0
 14 15  1  0  0  0  0
 15 16  1  0  0  0  0
 15 23  2  0  0  0  0
 16 17  2  0  0  0  0
 16 22  1  0  0  0  0
 17 18  1  0  0  0  0
 18 19  2  0  0  0  0
 19 20  1  0  0  0  0
 20 21  1  0  0  0  0
 20 22  2  0  0  0  0
 24 25  2  0  0  0  0
  1 26  1  0  0  0  0
  1 27  1  0  0  0  0
  1 28  1  0  0  0  0
  4 29  1  0  0  0  0
  5 30  1  0  0  0  0
  7 31  1  0  0  0  0
  7 32  1  0  0  0  0
  8 33  1  0  0  0  0
  9 34  1  0  0  0  0
  9 35  1  0  0  0  0
 10 36  1  0  0  0  0
 10 37  1  0  0  0  0
 12 38  1  0  0  0  0
 13 39  1  0  0  0  0
 14 40  1  0  0  0  0
 17 41  1  0  0  0  0
 18 42  1  0  0  0  0
 19 43  1  0  0  0  0
 22 44  1  0  0  0  0
 23 45  1  0  0  0  0
M  END
> <r_user_dG.exp>
-9.273

$$$$
