CAT-13k
  -OEChem-05192314073D
 Structure written by MMmdl.
 44 47  0     1  0  0  0  0  0999 V2000
   11.7400   -2.2126    1.2313 C   0  0  0  0  0  0  0  0  0  0  0  0
   13.0684   -2.5561    0.7089 N   0  0  0  0  0  0  0  0  0  0  0  0
   14.2256   -2.5677    1.3847 C   0  0  0  0  0  0  0  0  0  0  0  0
   14.3832   -2.3337    2.6889 N   0  0  0  0  0  0  0  0  0  0  0  0
   15.2563   -2.8608    0.5934 N   0  0  0  0  0  0  0  0  0  0  0  0
   14.8533   -3.1586   -0.7802 C   0  0  2  0  0  0  0  0  0  0  0  0
   15.1438   -4.6467   -1.0923 C   0  0  0  0  0  0  0  0  0  0  0  0
   14.2637   -5.4798   -1.8166 C   0  0  0  0  0  0  0  0  0  0  0  0
   14.5645   -6.8432   -1.9699 C   0  0  0  0  0  0  0  0  0  0  0  0
   15.7571   -7.3361   -1.4317 C   0  0  0  0  0  0  0  0  0  0  0  0
   16.6213   -6.5577   -0.7672 N   0  0  0  0  0  0  0  0  0  0  0  0
   16.3169   -5.2546   -0.6052 C   0  0  0  0  0  0  0  0  0  0  0  0
   15.4647   -2.1399   -1.7601 C   0  0  0  0  0  0  0  0  0  0  0  0
   16.0954   -2.5444   -2.9592 C   0  0  0  0  0  0  0  0  0  0  0  0
   16.5717   -1.5778   -3.8628 C   0  0  0  0  0  0  0  0  0  0  0  0
   16.4066   -0.2072   -3.5903 C   0  0  0  0  0  0  0  0  0  0  0  0
   15.8150    0.2377   -2.3895 C   0  0  0  0  0  0  0  0  0  0  0  0
   15.6040    1.6830   -2.1188 C   0  0  0  0  0  0  0  0  0  0  0  0
   15.3466    2.5922   -3.1729 C   0  0  0  0  0  0  0  0  0  0  0  0
   15.0379    3.9438   -2.9130 C   0  0  0  0  0  0  0  0  0  0  0  0
   15.0066    4.4209   -1.5932 C   0  0  0  0  0  0  0  0  0  0  0  0
   15.3052    3.5500   -0.5350 C   0  0  0  0  0  0  0  0  0  0  0  0
   15.2910    4.1515    1.0816 Cl  0  0  0  0  0  0  0  0  0  0  0  0
   15.6001    2.1968   -0.7994 C   0  0  0  0  0  0  0  0  0  0  0  0
   15.3711   -0.7498   -1.4798 C   0  0  0  0  0  0  0  0  0  0  0  0
   13.3361   -2.8874   -0.6508 C   0  0  0  0  0  0  0  0  0  0  0  0
   12.4745   -2.9293   -1.5356 O   0  0  0  0  0  0  0  0  0  0  0  0
   10.9952   -2.2992    0.4264 H   0  0  0  0  0  0  0  0  0  0  0  0
   11.4783   -2.9009    2.0485 H   0  0  0  0  0  0  0  0  0  0  0  0
   11.7511   -1.1802    1.6108 H   0  0  0  0  0  0  0  0  0  0  0  0
   15.2948   -2.3760    3.0979 H   0  0  0  0  0  0  0  0  0  0  0  0
   13.5898   -2.1160    3.2573 H   0  0  0  0  0  0  0  0  0  0  0  0
   13.3634   -5.0707   -2.2507 H   0  0  0  0  0  0  0  0  0  0  0  0
   13.8861   -7.4996   -2.4946 H   0  0  0  0  0  0  0  0  0  0  0  0
   15.9902   -8.3833   -1.5564 H   0  0  0  0  0  0  0  0  0  0  0  0
   17.0191   -4.6359   -0.0662 H   0  0  0  0  0  0  0  0  0  0  0  0
   16.2113   -3.5950   -3.1810 H   0  0  0  0  0  0  0  0  0  0  0  0
   17.0668   -1.8891   -4.7707 H   0  0  0  0  0  0  0  0  0  0  0  0
   16.7400    0.5197   -4.3161 H   0  0  0  0  0  0  0  0  0  0  0  0
   15.3873    2.2447   -4.1946 H   0  0  0  0  0  0  0  0  0  0  0  0
   14.8248    4.6141   -3.7325 H   0  0  0  0  0  0  0  0  0  0  0  0
   14.7542    5.4519   -1.3938 H   0  0  0  0  0  0  0  0  0  0  0  0
   15.8285    1.5364    0.0241 H   0  0  0  0  0  0  0  0  0  0  0  0
   14.9456   -0.4362   -0.5380 H   0  0  0  0  0  0  0  0  0  0  0  0
  1  2  1  0  0  0  0
  2  3  1  0  0  0  0
  2 26  1  0  0  0  0
  3  4  1  0  0  0  0
  3  5  2  0  0  0  0
  5  6  1  0  0  0  0
  6  7  1  0  0  0  0
  6 13  1  0  0  0  0
  6 26  1  0  0  0  0
  7  8  2  0  0  0  0
  7 12  1  0  0  0  0
  8  9  1  0  0  0  0
  9 10  2  0  0  0  0
 10 11  1  0  0  0  0
 11 12  2  0  0  0  0
 13 14  2  0  0  0  0
 13 25  1  0  0  0  0
 14 15  1  0  0  0  0
 15 16  2  0  0  0  0
 16 17  1  0  0  0  0
 17 18  1  0  0  0  0
 17 25  2  0  0  0  0
 18 19  2  0  0  0  0
 18 24  1  0  0  0  0
 19 20  1  0  0  0  0
 20 21  2  0  0  0  0
 21 22  1  0  0  0  0
 22 23  1  0  0  0  0
 22 24  2  0  0  0  0
 26 27  2  0  0  0  0
  1 28  1  0  0  0  0
  1 29  1  0  0  0  0
  1 30  1  0  0  0  0
  4 31  1  0  0  0  0
  4 32  1  0  0  0  0
  8 33  1  0  0  0  0
  9 34  1  0  0  0  0
 10 35  1  0  0  0  0
 12 36  1  0  0  0  0
 14 37  1  0  0  0  0
 15 38  1  0  0  0  0
 16 39  1  0  0  0  0
 19 40  1  0  0  0  0
 20 41  1  0  0  0  0
 21 42  1  0  0  0  0
 24 43  1  0  0  0  0
 25 44  1  0  0  0  0
M  END
> <r_user_dG.exp>
-9.703

$$$$
CAT-13k
  -OEChem-05192314073D
 Structure written by MMmdl.
 44 47  0     1  0  0  0  0  0999 V2000
   11.7400   -2.2126    1.2313 C   0  0  0  0  0  0  0  0  0  0  0  0
   13.0684   -2.5561    0.7089 N   0  0  0  0  0  0  0  0  0  0  0  0
   14.2256   -2.5677    1.3847 C   0  0  0  0  0  0  0  0  0  0  0  0
   14.3832   -2.3337    2.6889 N   0  0  0  0  0  0  0  0  0  0  0  0
   15.2563   -2.8608    0.5934 N   0  0  0  0  0  0  0  0  0  0  0  0
   14.8533   -3.1586   -0.7802 C   0  0  2  0  0  0  0  0  0  0  0  0
   15.1438   -4.6467   -1.0923 C   0  0  0  0  0  0  0  0  0  0  0  0
   14.2637   -5.4798   -1.8166 C   0  0  0  0  0  0  0  0  0  0  0  0
   14.5645   -6.8432   -1.9699 C   0  0  0  0  0  0  0  0  0  0  0  0
   15.7571   -7.3361   -1.4317 C   0  0  0  0  0  0  0  0  0  0  0  0
   16.6213   -6.5577   -0.7672 N   0  0  0  0  0  0  0  0  0  0  0  0
   16.3169   -5.2546   -0.6052 C   0  0  0  0  0  0  0  0  0  0  0  0
   15.4647   -2.1399   -1.7601 C   0  0  0  0  0  0  0  0  0  0  0  0
   16.0954   -2.5444   -2.9592 C   0  0  0  0  0  0  0  0  0  0  0  0
   16.5717   -1.5778   -3.8628 C   0  0  0  0  0  0  0  0  0  0  0  0
   16.4066   -0.2072   -3.5903 C   0  0  0  0  0  0  0  0  0  0  0  0
   15.8150    0.2377   -2.3895 C   0  0  0  0  0  0  0  0  0  0  0  0
   15.6040    1.6830   -2.1188 C   0  0  0  0  0  0  0  0  0  0  0  0
   15.3466    2.5922   -3.1729 C   0  0  0  0  0  0  0  0  0  0  0  0
   15.0379    3.9438   -2.9130 C   0  0  0  0  0  0  0  0  0  0  0  0
   15.0066    4.4209   -1.5932 C   0  0  0  0  0  0  0  0  0  0  0  0
   15.3052    3.5500   -0.5350 C   0  0  0  0  0  0  0  0  0  0  0  0
   15.2910    4.1515    1.0816 Cl  0  0  0  0  0  0  0  0  0  0  0  0
   15.6001    2.1968   -0.7994 C   0  0  0  0  0  0  0  0  0  0  0  0
   15.3711   -0.7498   -1.4798 C   0  0  0  0  0  0  0  0  0  0  0  0
   13.3361   -2.8874   -0.6508 C   0  0  0  0  0  0  0  0  0  0  0  0
   12.4745   -2.9293   -1.5356 O   0  0  0  0  0  0  0  0  0  0  0  0
   10.9952   -2.2992    0.4264 H   0  0  0  0  0  0  0  0  0  0  0  0
   11.4783   -2.9009    2.0485 H   0  0  0  0  0  0  0  0  0  0  0  0
   11.7511   -1.1802    1.6108 H   0  0  0  0  0  0  0  0  0  0  0  0
   15.3401   -2.4072    2.9697 H   0  0  0  0  0  0  0  0  0  0  0  0
   16.2061   -2.8756    0.9060 H   0  0  0  0  0  0  0  0  0  0  0  0
   13.3634   -5.0707   -2.2507 H   0  0  0  0  0  0  0  0  0  0  0  0
   13.8861   -7.4996   -2.4946 H   0  0  0  0  0  0  0  0  0  0  0  0
   15.9902   -8.3833   -1.5564 H   0  0  0  0  0  0  0  0  0  0  0  0
   17.0191   -4.6359   -0.0662 H   0  0  0  0  0  0  0  0  0  0  0  0
   16.2113   -3.5950   -3.1810 H   0  0  0  0  0  0  0  0  0  0  0  0
   17.0668   -1.8891   -4.7707 H   0  0  0  0  0  0  0  0  0  0  0  0
   16.7400    0.5197   -4.3161 H   0  0  0  0  0  0  0  0  0  0  0  0
   15.3873    2.2447   -4.1946 H   0  0  0  0  0  0  0  0  0  0  0  0
   14.8248    4.6141   -3.7325 H   0  0  0  0  0  0  0  0  0  0  0  0
   14.7542    5.4519   -1.3938 H   0  0  0  0  0  0  0  0  0  0  0  0
   15.8285    1.5364    0.0241 H   0  0  0  0  0  0  0  0  0  0  0  0
   14.9456   -0.4362   -0.5380 H   0  0  0  0  0  0  0  0  0  0  0  0
  1  2  1  0  0  0  0
  2  3  1  0  0  0  0
  2 26  1  0  0  0  0
  3  4  2  0  0  0  0
  3  5  1  0  0  0  0
  5  6  1  0  0  0  0
  6  7  1  0  0  0  0
  6 13  1  0  0  0  0
  6 26  1  0  0  0  0
  7  8  2  0  0  0  0
  7 12  1  0  0  0  0
  8  9  1  0  0  0  0
  9 10  2  0  0  0  0
 10 11  1  0  0  0  0
 11 12  2  0  0  0  0
 13 14  2  0  0  0  0
 13 25  1  0  0  0  0
 14 15  1  0  0  0  0
 15 16  2  0  0  0  0
 16 17  1  0  0  0  0
 17 18  1  0  0  0  0
 17 25  2  0  0  0  0
 18 19  2  0  0  0  0
 18 24  1  0  0  0  0
 19 20  1  0  0  0  0
 20 21  2  0  0  0  0
 21 22  1  0  0  0  0
 22 23  1  0  0  0  0
 22 24  2  0  0  0  0
 26 27  2  0  0  0  0
  1 28  1  0  0  0  0
  1 29  1  0  0  0  0
  1 30  1  0  0  0  0
  4 31  1  0  0  0  0
  5 32  1  0  0  0  0
  8 33  1  0  0  0  0
  9 34  1  0  0  0  0
 10 35  1  0  0  0  0
 12 36  1  0  0  0  0
 14 37  1  0  0  0  0
 15 38  1  0  0  0  0
 16 39  1  0  0  0  0
 19 40  1  0  0  0  0
 20 41  1  0  0  0  0
 21 42  1  0  0  0  0
 24 43  1  0  0  0  0
 25 44  1  0  0  0  0
M  END
> <r_user_dG.exp>
-9.703

$$$$
