CAT-4k
  -OEChem-05162309453D
 Structure written by MMmdl.
 44 47  0     1  0  0  0  0  0999 V2000
   11.7087   -2.3257    1.2760 C   0  0  0  0  0  0  0  0  0  0  0  0
   13.0268   -2.6680    0.7261 N   0  0  0  0  0  0  0  0  0  0  0  0
   14.2004   -2.6361    1.3737 C   0  0  0  0  0  0  0  0  0  0  0  0
   14.3830   -2.3568    2.6674 N   0  0  0  0  0  0  0  0  0  0  0  0
   15.2173   -2.9288    0.5653 N   0  0  0  0  0  0  0  0  0  0  0  0
   14.7842   -3.2713   -0.7916 C   0  0  2  0  0  0  0  0  0  0  0  0
   15.1329   -4.7525   -1.0673 C   0  0  0  0  0  0  0  0  0  0  0  0
   14.2837   -5.6424   -1.7688 C   0  0  0  0  0  0  0  0  0  0  0  0
   14.6395   -6.9945   -1.9475 C   0  0  0  0  0  0  0  0  0  0  0  0
   15.8632   -7.4748   -1.4526 C   0  0  0  0  0  0  0  0  0  0  0  0
   16.7337   -6.6012   -0.7899 C   0  0  0  0  0  0  0  0  0  0  0  0
   16.3585   -5.2630   -0.5886 C   0  0  0  0  0  0  0  0  0  0  0  0
   15.3568   -2.2699   -1.8111 C   0  0  0  0  0  0  0  0  0  0  0  0
   15.9115   -2.6866   -3.0438 C   0  0  0  0  0  0  0  0  0  0  0  0
   16.3923   -1.7309   -3.9571 C   0  0  0  0  0  0  0  0  0  0  0  0
   16.3151   -0.3584   -3.6589 C   0  0  0  0  0  0  0  0  0  0  0  0
   15.7903    0.0946   -2.4312 C   0  0  0  0  0  0  0  0  0  0  0  0
   15.7052    1.5402   -2.1087 C   0  0  0  0  0  0  0  0  0  0  0  0
   15.6969    1.9913   -0.7745 C   0  0  0  0  0  0  0  0  0  0  0  0
   15.5589    3.3571   -0.4899 C   0  0  0  0  0  0  0  0  0  0  0  0
   15.4374    4.2916   -1.4442 N   0  0  0  0  0  0  0  0  0  0  0  0
   15.4666    3.8814   -2.7239 C   0  0  0  0  0  0  0  0  0  0  0  0
   15.5980    2.5333   -3.1039 C   0  0  0  0  0  0  0  0  0  0  0  0
   15.3231   -0.8816   -1.5215 C   0  0  0  0  0  0  0  0  0  0  0  0
   13.2648   -3.0328   -0.6326 C   0  0  0  0  0  0  0  0  0  0  0  0
   12.3816   -3.0977   -1.4960 O   0  0  0  0  0  0  0  0  0  0  0  0
   10.9420   -2.4518    0.4974 H   0  0  0  0  0  0  0  0  0  0  0  0
   11.4821   -2.9883    2.1243 H   0  0  0  0  0  0  0  0  0  0  0  0
   11.7147   -1.2804    1.6186 H   0  0  0  0  0  0  0  0  0  0  0  0
   15.3047   -2.3637    3.0552 H   0  0  0  0  0  0  0  0  0  0  0  0
   13.5979   -2.1409    3.2480 H   0  0  0  0  0  0  0  0  0  0  0  0
   13.3500   -5.2799   -2.1727 H   0  0  0  0  0  0  0  0  0  0  0  0
   13.9691   -7.6634   -2.4666 H   0  0  0  0  0  0  0  0  0  0  0  0
   16.1312   -8.5129   -1.5827 H   0  0  0  0  0  0  0  0  0  0  0  0
   17.6903   -6.9552   -0.4348 H   0  0  0  0  0  0  0  0  0  0  0  0
   17.0269   -4.6058   -0.0522 H   0  0  0  0  0  0  0  0  0  0  0  0
   15.9659   -3.7382   -3.2837 H   0  0  0  0  0  0  0  0  0  0  0  0
   16.8235   -2.0530   -4.8934 H   0  0  0  0  0  0  0  0  0  0  0  0
   16.6644    0.3619   -4.3839 H   0  0  0  0  0  0  0  0  0  0  0  0
   15.7973    1.2816    0.0333 H   0  0  0  0  0  0  0  0  0  0  0  0
   15.5500    3.6706    0.5436 H   0  0  0  0  0  0  0  0  0  0  0  0
   15.3848    4.6263   -3.5016 H   0  0  0  0  0  0  0  0  0  0  0  0
   15.6166    2.2613   -4.1489 H   0  0  0  0  0  0  0  0  0  0  0  0
   14.9258   -0.5583   -0.5707 H   0  0  0  0  0  0  0  0  0  0  0  0
  1  2  1  0  0  0  0
  2  3  1  0  0  0  0
  2 25  1  0  0  0  0
  3  4  1  0  0  0  0
  3  5  2  0  0  0  0
  5  6  1  0  0  0  0
  6  7  1  0  0  0  0
  6 13  1  0  0  0  0
  6 25  1  0  0  0  0
  7  8  2  0  0  0  0
  7 12  1  0  0  0  0
  8  9  1  0  0  0  0
  9 10  2  0  0  0  0
 10 11  1  0  0  0  0
 11 12  2  0  0  0  0
 13 14  2  0  0  0  0
 13 24  1  0  0  0  0
 14 15  1  0  0  0  0
 15 16  2  0  0  0  0
 16 17  1  0  0  0  0
 17 18  1  0  0  0  0
 17 24  2  0  0  0  0
 18 19  2  0  0  0  0
 18 23  1  0  0  0  0
 19 20  1  0  0  0  0
 20 21  2  0  0  0  0
 21 22  1  0  0  0  0
 22 23  2  0  0  0  0
 25 26  2  0  0  0  0
  1 27  1  0  0  0  0
  1 28  1  0  0  0  0
  1 29  1  0  0  0  0
  4 30  1  0  0  0  0
  4 31  1  0  0  0  0
  8 32  1  0  0  0  0
  9 33  1  0  0  0  0
 10 34  1  0  0  0  0
 11 35  1  0  0  0  0
 12 36  1  0  0  0  0
 14 37  1  0  0  0  0
 15 38  1  0  0  0  0
 16 39  1  0  0  0  0
 19 40  1  0  0  0  0
 20 41  1  0  0  0  0
 22 42  1  0  0  0  0
 23 43  1  0  0  0  0
 24 44  1  0  0  0  0
M  END
> <r_user_dG.exp>
-7.853

$$$$
CAT-4k
  -OEChem-05162309453D
 Structure written by MMmdl.
 44 47  0     1  0  0  0  0  0999 V2000
   11.7087   -2.3257    1.2760 C   0  0  0  0  0  0  0  0  0  0  0  0
   13.0268   -2.6680    0.7261 N   0  0  0  0  0  0  0  0  0  0  0  0
   14.2004   -2.6361    1.3737 C   0  0  0  0  0  0  0  0  0  0  0  0
   14.3830   -2.3568    2.6674 N   0  0  0  0  0  0  0  0  0  0  0  0
   15.2173   -2.9288    0.5653 N   0  0  0  0  0  0  0  0  0  0  0  0
   14.7842   -3.2713   -0.7916 C   0  0  2  0  0  0  0  0  0  0  0  0
   15.1329   -4.7525   -1.0673 C   0  0  0  0  0  0  0  0  0  0  0  0
   14.2837   -5.6424   -1.7688 C   0  0  0  0  0  0  0  0  0  0  0  0
   14.6395   -6.9945   -1.9475 C   0  0  0  0  0  0  0  0  0  0  0  0
   15.8632   -7.4748   -1.4526 C   0  0  0  0  0  0  0  0  0  0  0  0
   16.7337   -6.6012   -0.7899 C   0  0  0  0  0  0  0  0  0  0  0  0
   16.3585   -5.2630   -0.5886 C   0  0  0  0  0  0  0  0  0  0  0  0
   15.3568   -2.2699   -1.8111 C   0  0  0  0  0  0  0  0  0  0  0  0
   15.9115   -2.6866   -3.0438 C   0  0  0  0  0  0  0  0  0  0  0  0
   16.3923   -1.7309   -3.9571 C   0  0  0  0  0  0  0  0  0  0  0  0
   16.3151   -0.3584   -3.6589 C   0  0  0  0  0  0  0  0  0  0  0  0
   15.7903    0.0946   -2.4312 C   0  0  0  0  0  0  0  0  0  0  0  0
   15.7052    1.5402   -2.1087 C   0  0  0  0  0  0  0  0  0  0  0  0
   15.6969    1.9913   -0.7745 C   0  0  0  0  0  0  0  0  0  0  0  0
   15.5589    3.3571   -0.4899 C   0  0  0  0  0  0  0  0  0  0  0  0
   15.4374    4.2916   -1.4442 N   0  0  0  0  0  0  0  0  0  0  0  0
   15.4666    3.8814   -2.7239 C   0  0  0  0  0  0  0  0  0  0  0  0
   15.5980    2.5333   -3.1039 C   0  0  0  0  0  0  0  0  0  0  0  0
   15.3231   -0.8816   -1.5215 C   0  0  0  0  0  0  0  0  0  0  0  0
   13.2648   -3.0328   -0.6326 C   0  0  0  0  0  0  0  0  0  0  0  0
   12.3816   -3.0977   -1.4960 O   0  0  0  0  0  0  0  0  0  0  0  0
   10.9420   -2.4518    0.4974 H   0  0  0  0  0  0  0  0  0  0  0  0
   11.4821   -2.9883    2.1243 H   0  0  0  0  0  0  0  0  0  0  0  0
   11.7147   -1.2804    1.6186 H   0  0  0  0  0  0  0  0  0  0  0  0
   15.3479   -2.3978    2.9269 H   0  0  0  0  0  0  0  0  0  0  0  0
   16.1747   -2.9162    0.8538 H   0  0  0  0  0  0  0  0  0  0  0  0
   13.3500   -5.2799   -2.1727 H   0  0  0  0  0  0  0  0  0  0  0  0
   13.9691   -7.6634   -2.4666 H   0  0  0  0  0  0  0  0  0  0  0  0
   16.1312   -8.5129   -1.5827 H   0  0  0  0  0  0  0  0  0  0  0  0
   17.6903   -6.9552   -0.4348 H   0  0  0  0  0  0  0  0  0  0  0  0
   17.0269   -4.6058   -0.0522 H   0  0  0  0  0  0  0  0  0  0  0  0
   15.9659   -3.7382   -3.2837 H   0  0  0  0  0  0  0  0  0  0  0  0
   16.8235   -2.0530   -4.8934 H   0  0  0  0  0  0  0  0  0  0  0  0
   16.6644    0.3619   -4.3839 H   0  0  0  0  0  0  0  0  0  0  0  0
   15.7973    1.2816    0.0333 H   0  0  0  0  0  0  0  0  0  0  0  0
   15.5500    3.6706    0.5436 H   0  0  0  0  0  0  0  0  0  0  0  0
   15.3848    4.6263   -3.5016 H   0  0  0  0  0  0  0  0  0  0  0  0
   15.6166    2.2613   -4.1489 H   0  0  0  0  0  0  0  0  0  0  0  0
   14.9258   -0.5583   -0.5707 H   0  0  0  0  0  0  0  0  0  0  0  0
  1  2  1  0  0  0  0
  2  3  1  0  0  0  0
  2 25  1  0  0  0  0
  3  4  2  0  0  0  0
  3  5  1  0  0  0  0
  5  6  1  0  0  0  0
  6  7  1  0  0  0  0
  6 13  1  0  0  0  0
  6 25  1  0  0  0  0
  7  8  2  0  0  0  0
  7 12  1  0  0  0  0
  8  9  1  0  0  0  0
  9 10  2  0  0  0  0
 10 11  1  0  0  0  0
 11 12  2  0  0  0  0
 13 14  2  0  0  0  0
 13 24  1  0  0  0  0
 14 15  1  0  0  0  0
 15 16  2  0  0  0  0
 16 17  1  0  0  0  0
 17 18  1  0  0  0  0
 17 24  2  0  0  0  0
 18 19  2  0  0  0  0
 18 23  1  0  0  0  0
 19 20  1  0  0  0  0
 20 21  2  0  0  0  0
 21 22  1  0  0  0  0
 22 23  2  0  0  0  0
 25 26  2  0  0  0  0
  1 27  1  0  0  0  0
  1 28  1  0  0  0  0
  1 29  1  0  0  0  0
  4 30  1  0  0  0  0
  5 31  1  0  0  0  0
  8 32  1  0  0  0  0
  9 33  1  0  0  0  0
 10 34  1  0  0  0  0
 11 35  1  0  0  0  0
 12 36  1  0  0  0  0
 14 37  1  0  0  0  0
 15 38  1  0  0  0  0
 16 39  1  0  0  0  0
 19 40  1  0  0  0  0
 20 41  1  0  0  0  0
 22 42  1  0  0  0  0
 23 43  1  0  0  0  0
 24 44  1  0  0  0  0
M  END
> <r_user_dG.exp>
-7.853

$$$$
