CAT-17h
  -OEChem-05192314073D
 Structure written by MMmdl.
 41 44  0     1  0  0  0  0  0999 V2000
   11.7876   -2.3629    1.0753 C   0  0  0  0  0  0  0  0  0  0  0  0
   13.1411   -2.6519    0.5831 N   0  0  0  0  0  0  0  0  0  0  0  0
   14.2738   -2.5824    1.2973 C   0  0  0  0  0  0  0  0  0  0  0  0
   14.3737   -2.3175    2.6048 N   0  0  0  0  0  0  0  0  0  0  0  0
   15.3423   -2.8322    0.5428 N   0  0  0  0  0  0  0  0  0  0  0  0
   15.0054   -3.1469   -0.8380 C   0  0  1  0  0  0  0  0  0  0  0  0
   15.5491   -2.0803   -1.8069 C   0  0  0  0  0  0  0  0  0  0  0  0
   16.1588   -2.4454   -3.0305 C   0  0  0  0  0  0  0  0  0  0  0  0
   16.5920   -1.4580   -3.9273 C   0  0  0  0  0  0  0  0  0  0  0  0
   16.4001   -0.0996   -3.6280 C   0  0  0  0  0  0  0  0  0  0  0  0
   15.8193    0.3104   -2.4088 C   0  0  0  0  0  0  0  0  0  0  0  0
   15.5975    1.7479   -2.1182 C   0  0  0  0  0  0  0  0  0  0  0  0
   15.3876    2.6890   -3.1521 C   0  0  0  0  0  0  0  0  0  0  0  0
   15.1194    3.9953   -2.9527 N   0  0  0  0  0  0  0  0  0  0  0  0
   15.0499    4.4405   -1.6849 C   0  0  0  0  0  0  0  0  0  0  0  0
   15.2748    3.6152   -0.5724 C   0  0  0  0  0  0  0  0  0  0  0  0
   15.1922    4.2577    1.0276 Cl  0  0  0  0  0  0  0  0  0  0  0  0
   15.5592    2.2562   -0.8005 C   0  0  0  0  0  0  0  0  0  0  0  0
   15.4167   -0.6999   -1.5023 C   0  0  0  0  0  0  0  0  0  0  0  0
   15.5681   -4.5517   -1.1183 C   0  0  0  0  0  0  0  0  0  0  0  0
   14.9253   -5.8313   -0.6183 C   0  0  0  0  0  0  0  0  0  0  0  0
   14.9664   -5.5372   -2.0971 C   0  0  0  0  0  0  0  0  0  0  0  0
   13.4684   -3.0281   -0.7573 C   0  0  0  0  0  0  0  0  0  0  0  0
   12.6385   -3.1793   -1.6592 O   0  0  0  0  0  0  0  0  0  0  0  0
   11.0623   -2.5062    0.2608 H   0  0  0  0  0  0  0  0  0  0  0  0
   11.5462   -3.0436    1.9050 H   0  0  0  0  0  0  0  0  0  0  0  0
   11.7406   -1.3224    1.4291 H   0  0  0  0  0  0  0  0  0  0  0  0
   15.2716   -2.3028    3.0448 H   0  0  0  0  0  0  0  0  0  0  0  0
   13.5505   -2.1342    3.1422 H   0  0  0  0  0  0  0  0  0  0  0  0
   16.2911   -3.4890   -3.2749 H   0  0  0  0  0  0  0  0  0  0  0  0
   17.0744   -1.7432   -4.8505 H   0  0  0  0  0  0  0  0  0  0  0  0
   16.7035    0.6476   -4.3463 H   0  0  0  0  0  0  0  0  0  0  0  0
   15.4461    2.3375   -4.1716 H   0  0  0  0  0  0  0  0  0  0  0  0
   14.8102    5.4799   -1.5158 H   0  0  0  0  0  0  0  0  0  0  0  0
   15.7490    1.5989    0.0352 H   0  0  0  0  0  0  0  0  0  0  0  0
   14.9961   -0.4118   -0.5502 H   0  0  0  0  0  0  0  0  0  0  0  0
   16.6674   -4.5825   -1.0939 H   0  0  0  0  0  0  0  0  0  0  0  0
   15.5506   -6.6336   -0.1996 H   0  0  0  0  0  0  0  0  0  0  0  0
   13.9691   -5.7908   -0.0760 H   0  0  0  0  0  0  0  0  0  0  0  0
   14.0397   -5.2833   -2.6326 H   0  0  0  0  0  0  0  0  0  0  0  0
   15.6212   -6.1260   -2.7563 H   0  0  0  0  0  0  0  0  0  0  0  0
  1  2  1  0  0  0  0
  2  3  1  0  0  0  0
  2 23  1  0  0  0  0
  3  4  1  0  0  0  0
  3  5  2  0  0  0  0
  5  6  1  0  0  0  0
  6  7  1  0  0  0  0
  6 20  1  0  0  0  0
  6 23  1  0  0  0  0
  7  8  2  0  0  0  0
  7 19  1  0  0  0  0
  8  9  1  0  0  0  0
  9 10  2  0  0  0  0
 10 11  1  0  0  0  0
 11 12  1  0  0  0  0
 11 19  2  0  0  0  0
 12 13  2  0  0  0  0
 12 18  1  0  0  0  0
 13 14  1  0  0  0  0
 14 15  2  0  0  0  0
 15 16  1  0  0  0  0
 16 17  1  0  0  0  0
 16 18  2  0  0  0  0
 20 21  1  0  0  0  0
 20 22  1  0  0  0  0
 21 22  1  0  0  0  0
 23 24  2  0  0  0  0
  1 25  1  0  0  0  0
  1 26  1  0  0  0  0
  1 27  1  0  0  0  0
  4 28  1  0  0  0  0
  4 29  1  0  0  0  0
  8 30  1  0  0  0  0
  9 31  1  0  0  0  0
 10 32  1  0  0  0  0
 13 33  1  0  0  0  0
 15 34  1  0  0  0  0
 18 35  1  0  0  0  0
 19 36  1  0  0  0  0
 20 37  1  0  0  0  0
 21 38  1  0  0  0  0
 21 39  1  0  0  0  0
 22 40  1  0  0  0  0
 22 41  1  0  0  0  0
M  END
> <r_user_dG.exp>
-10.333

$$$$
CAT-17h
  -OEChem-05192314073D
 Structure written by MMmdl.
 41 44  0     1  0  0  0  0  0999 V2000
   11.7876   -2.3629    1.0753 C   0  0  0  0  0  0  0  0  0  0  0  0
   13.1411   -2.6519    0.5831 N   0  0  0  0  0  0  0  0  0  0  0  0
   14.2738   -2.5824    1.2973 C   0  0  0  0  0  0  0  0  0  0  0  0
   14.3737   -2.3175    2.6048 N   0  0  0  0  0  0  0  0  0  0  0  0
   15.3423   -2.8322    0.5428 N   0  0  0  0  0  0  0  0  0  0  0  0
   15.0054   -3.1469   -0.8380 C   0  0  1  0  0  0  0  0  0  0  0  0
   15.5491   -2.0803   -1.8069 C   0  0  0  0  0  0  0  0  0  0  0  0
   16.1588   -2.4454   -3.0305 C   0  0  0  0  0  0  0  0  0  0  0  0
   16.5920   -1.4580   -3.9273 C   0  0  0  0  0  0  0  0  0  0  0  0
   16.4001   -0.0996   -3.6280 C   0  0  0  0  0  0  0  0  0  0  0  0
   15.8193    0.3104   -2.4088 C   0  0  0  0  0  0  0  0  0  0  0  0
   15.5975    1.7479   -2.1182 C   0  0  0  0  0  0  0  0  0  0  0  0
   15.3876    2.6890   -3.1521 C   0  0  0  0  0  0  0  0  0  0  0  0
   15.1194    3.9953   -2.9527 N   0  0  0  0  0  0  0  0  0  0  0  0
   15.0499    4.4405   -1.6849 C   0  0  0  0  0  0  0  0  0  0  0  0
   15.2748    3.6152   -0.5724 C   0  0  0  0  0  0  0  0  0  0  0  0
   15.1922    4.2577    1.0276 Cl  0  0  0  0  0  0  0  0  0  0  0  0
   15.5592    2.2562   -0.8005 C   0  0  0  0  0  0  0  0  0  0  0  0
   15.4167   -0.6999   -1.5023 C   0  0  0  0  0  0  0  0  0  0  0  0
   15.5681   -4.5517   -1.1183 C   0  0  0  0  0  0  0  0  0  0  0  0
   14.9253   -5.8313   -0.6183 C   0  0  0  0  0  0  0  0  0  0  0  0
   14.9664   -5.5372   -2.0971 C   0  0  0  0  0  0  0  0  0  0  0  0
   13.4684   -3.0281   -0.7573 C   0  0  0  0  0  0  0  0  0  0  0  0
   12.6385   -3.1793   -1.6592 O   0  0  0  0  0  0  0  0  0  0  0  0
   11.0623   -2.5062    0.2608 H   0  0  0  0  0  0  0  0  0  0  0  0
   11.5462   -3.0436    1.9050 H   0  0  0  0  0  0  0  0  0  0  0  0
   11.7406   -1.3224    1.4291 H   0  0  0  0  0  0  0  0  0  0  0  0
   15.3230   -2.3335    2.9188 H   0  0  0  0  0  0  0  0  0  0  0  0
   16.2800   -2.8063    0.8892 H   0  0  0  0  0  0  0  0  0  0  0  0
   16.2911   -3.4890   -3.2749 H   0  0  0  0  0  0  0  0  0  0  0  0
   17.0744   -1.7432   -4.8505 H   0  0  0  0  0  0  0  0  0  0  0  0
   16.7035    0.6476   -4.3463 H   0  0  0  0  0  0  0  0  0  0  0  0
   15.4461    2.3375   -4.1716 H   0  0  0  0  0  0  0  0  0  0  0  0
   14.8102    5.4799   -1.5158 H   0  0  0  0  0  0  0  0  0  0  0  0
   15.7490    1.5989    0.0352 H   0  0  0  0  0  0  0  0  0  0  0  0
   14.9961   -0.4118   -0.5502 H   0  0  0  0  0  0  0  0  0  0  0  0
   16.6674   -4.5825   -1.0939 H   0  0  0  0  0  0  0  0  0  0  0  0
   15.5506   -6.6336   -0.1996 H   0  0  0  0  0  0  0  0  0  0  0  0
   13.9691   -5.7908   -0.0760 H   0  0  0  0  0  0  0  0  0  0  0  0
   14.0397   -5.2833   -2.6326 H   0  0  0  0  0  0  0  0  0  0  0  0
   15.6212   -6.1260   -2.7563 H   0  0  0  0  0  0  0  0  0  0  0  0
  1  2  1  0  0  0  0
  2  3  1  0  0  0  0
  2 23  1  0  0  0  0
  3  4  2  0  0  0  0
  3  5  1  0  0  0  0
  5  6  1  0  0  0  0
  6  7  1  0  0  0  0
  6 20  1  0  0  0  0
  6 23  1  0  0  0  0
  7  8  2  0  0  0  0
  7 19  1  0  0  0  0
  8  9  1  0  0  0  0
  9 10  2  0  0  0  0
 10 11  1  0  0  0  0
 11 12  1  0  0  0  0
 11 19  2  0  0  0  0
 12 13  2  0  0  0  0
 12 18  1  0  0  0  0
 13 14  1  0  0  0  0
 14 15  2  0  0  0  0
 15 16  1  0  0  0  0
 16 17  1  0  0  0  0
 16 18  2  0  0  0  0
 20 21  1  0  0  0  0
 20 22  1  0  0  0  0
 21 22  1  0  0  0  0
 23 24  2  0  0  0  0
  1 25  1  0  0  0  0
  1 26  1  0  0  0  0
  1 27  1  0  0  0  0
  4 28  1  0  0  0  0
  5 29  1  0  0  0  0
  8 30  1  0  0  0  0
  9 31  1  0  0  0  0
 10 32  1  0  0  0  0
 13 33  1  0  0  0  0
 15 34  1  0  0  0  0
 18 35  1  0  0  0  0
 19 36  1  0  0  0  0
 20 37  1  0  0  0  0
 21 38  1  0  0  0  0
 21 39  1  0  0  0  0
 22 40  1  0  0  0  0
 22 41  1  0  0  0  0
M  END
> <r_user_dG.exp>
-10.333

$$$$
