CAT-4c
  -OEChem-05192314073D
 Structure written by MMmdl.
 49 52  0     1  0  0  0  0  0999 V2000
   12.5711    5.3513   -2.7657 C   0  0  0  0  0  0  0  0  0  0  0  0
   13.7081    5.1549   -1.9289 O   0  0  0  0  0  0  0  0  0  0  0  0
   14.3525    3.9582   -2.1070 C   0  0  0  0  0  0  0  0  0  0  0  0
   14.8801    3.2992   -0.9813 C   0  0  0  0  0  0  0  0  0  0  0  0
   15.4000    1.9956   -1.1053 C   0  0  0  0  0  0  0  0  0  0  0  0
   15.4241    1.3431   -2.3579 C   0  0  0  0  0  0  0  0  0  0  0  0
   15.7606   -0.0825   -2.4958 C   0  0  0  0  0  0  0  0  0  0  0  0
   16.4104   -0.5580   -3.6479 C   0  0  0  0  0  0  0  0  0  0  0  0
   16.5936   -1.9307   -3.8581 C   0  0  0  0  0  0  0  0  0  0  0  0
   16.0899   -2.8628   -2.9346 C   0  0  0  0  0  0  0  0  0  0  0  0
   15.4302   -2.4158   -1.7641 C   0  0  0  0  0  0  0  0  0  0  0  0
   14.8180   -3.3955   -0.7510 C   0  0  1  0  0  0  0  0  0  0  0  0
   15.1632   -4.8768   -1.0176 C   0  0  0  0  0  0  0  0  0  0  0  0
   14.3265   -5.7683   -1.7334 C   0  0  0  0  0  0  0  0  0  0  0  0
   14.7023   -7.1138   -1.9228 C   0  0  0  0  0  0  0  0  0  0  0  0
   15.9322   -7.5796   -1.4262 C   0  0  0  0  0  0  0  0  0  0  0  0
   16.7922   -6.7001   -0.7600 C   0  0  0  0  0  0  0  0  0  0  0  0
   16.3964   -5.3713   -0.5455 C   0  0  0  0  0  0  0  0  0  0  0  0
   15.2313   -3.0387    0.6068 N   0  0  0  0  0  0  0  0  0  0  0  0
   14.2081   -2.6970    1.3866 C   0  0  0  0  0  0  0  0  0  0  0  0
   14.3761   -2.3746    2.6722 N   0  0  0  0  0  0  0  0  0  0  0  0
   13.0452   -2.7268    0.7206 N   0  0  0  0  0  0  0  0  0  0  0  0
   11.7303   -2.3304    1.2406 C   0  0  0  0  0  0  0  0  0  0  0  0
   13.2977   -3.1408   -0.6221 C   0  0  0  0  0  0  0  0  0  0  0  0
   12.4259   -3.2223   -1.4953 O   0  0  0  0  0  0  0  0  0  0  0  0
   15.3168   -1.0203   -1.5415 C   0  0  0  0  0  0  0  0  0  0  0  0
   15.0015    2.0596   -3.4966 C   0  0  0  0  0  0  0  0  0  0  0  0
   14.4602    3.3469   -3.3731 C   0  0  0  0  0  0  0  0  0  0  0  0
   12.1231    6.3329   -2.5520 H   0  0  0  0  0  0  0  0  0  0  0  0
   12.8810    5.3116   -3.8204 H   0  0  0  0  0  0  0  0  0  0  0  0
   11.8316    4.5606   -2.5708 H   0  0  0  0  0  0  0  0  0  0  0  0
   14.8865    3.7933   -0.0210 H   0  0  0  0  0  0  0  0  0  0  0  0
   15.7846    1.4892   -0.2324 H   0  0  0  0  0  0  0  0  0  0  0  0
   16.7739    0.1457   -4.3821 H   0  0  0  0  0  0  0  0  0  0  0  0
   17.1243   -2.2744   -4.7337 H   0  0  0  0  0  0  0  0  0  0  0  0
   16.2061   -3.9208   -3.1179 H   0  0  0  0  0  0  0  0  0  0  0  0
   13.3904   -5.4132   -2.1384 H   0  0  0  0  0  0  0  0  0  0  0  0
   14.0440   -7.7881   -2.4505 H   0  0  0  0  0  0  0  0  0  0  0  0
   16.2125   -8.6141   -1.5587 H   0  0  0  0  0  0  0  0  0  0  0  0
   17.7559   -7.0422   -0.4126 H   0  0  0  0  0  0  0  0  0  0  0  0
   17.0548   -4.7085   -0.0036 H   0  0  0  0  0  0  0  0  0  0  0  0
   15.2913   -2.3856    3.0750 H   0  0  0  0  0  0  0  0  0  0  0  0
   13.5866   -2.1222    3.2317 H   0  0  0  0  0  0  0  0  0  0  0  0
   10.9695   -2.4671    0.4580 H   0  0  0  0  0  0  0  0  0  0  0  0
   11.4771   -2.9538    2.1108 H   0  0  0  0  0  0  0  0  0  0  0  0
   11.7592   -1.2732    1.5430 H   0  0  0  0  0  0  0  0  0  0  0  0
   14.8801   -0.6673   -0.6190 H   0  0  0  0  0  0  0  0  0  0  0  0
   15.0959    1.6116   -4.4748 H   0  0  0  0  0  0  0  0  0  0  0  0
   14.1234    3.8739   -4.2536 H   0  0  0  0  0  0  0  0  0  0  0  0
  1  2  1  0  0  0  0
  2  3  1  0  0  0  0
  3  4  2  0  0  0  0
  3 28  1  0  0  0  0
  4  5  1  0  0  0  0
  5  6  2  0  0  0  0
  6  7  1  0  0  0  0
  6 27  1  0  0  0  0
  7  8  2  0  0  0  0
  7 26  1  0  0  0  0
  8  9  1  0  0  0  0
  9 10  2  0  0  0  0
 10 11  1  0  0  0  0
 11 12  1  0  0  0  0
 11 26  2  0  0  0  0
 12 13  1  0  0  0  0
 12 19  1  0  0  0  0
 12 24  1  0  0  0  0
 13 14  2  0  0  0  0
 13 18  1  0  0  0  0
 14 15  1  0  0  0  0
 15 16  2  0  0  0  0
 16 17  1  0  0  0  0
 17 18  2  0  0  0  0
 19 20  2  0  0  0  0
 20 21  1  0  0  0  0
 20 22  1  0  0  0  0
 22 23  1  0  0  0  0
 22 24  1  0  0  0  0
 24 25  2  0  0  0  0
 27 28  2  0  0  0  0
  1 29  1  0  0  0  0
  1 30  1  0  0  0  0
  1 31  1  0  0  0  0
  4 32  1  0  0  0  0
  5 33  1  0  0  0  0
  8 34  1  0  0  0  0
  9 35  1  0  0  0  0
 10 36  1  0  0  0  0
 14 37  1  0  0  0  0
 15 38  1  0  0  0  0
 16 39  1  0  0  0  0
 17 40  1  0  0  0  0
 18 41  1  0  0  0  0
 21 42  1  0  0  0  0
 21 43  1  0  0  0  0
 23 44  1  0  0  0  0
 23 45  1  0  0  0  0
 23 46  1  0  0  0  0
 26 47  1  0  0  0  0
 27 48  1  0  0  0  0
 28 49  1  0  0  0  0
M  END
> <r_user_dG.exp>
-7.853

$$$$
CAT-4c
  -OEChem-05192314073D
 Structure written by MMmdl.
 49 52  0     1  0  0  0  0  0999 V2000
   12.5711    5.3513   -2.7657 C   0  0  0  0  0  0  0  0  0  0  0  0
   13.7081    5.1549   -1.9289 O   0  0  0  0  0  0  0  0  0  0  0  0
   14.3525    3.9582   -2.1070 C   0  0  0  0  0  0  0  0  0  0  0  0
   14.8801    3.2992   -0.9813 C   0  0  0  0  0  0  0  0  0  0  0  0
   15.4000    1.9956   -1.1053 C   0  0  0  0  0  0  0  0  0  0  0  0
   15.4241    1.3431   -2.3579 C   0  0  0  0  0  0  0  0  0  0  0  0
   15.7606   -0.0825   -2.4958 C   0  0  0  0  0  0  0  0  0  0  0  0
   16.4104   -0.5580   -3.6479 C   0  0  0  0  0  0  0  0  0  0  0  0
   16.5936   -1.9307   -3.8581 C   0  0  0  0  0  0  0  0  0  0  0  0
   16.0899   -2.8628   -2.9346 C   0  0  0  0  0  0  0  0  0  0  0  0
   15.4302   -2.4158   -1.7641 C   0  0  0  0  0  0  0  0  0  0  0  0
   14.8180   -3.3955   -0.7510 C   0  0  1  0  0  0  0  0  0  0  0  0
   15.1632   -4.8768   -1.0176 C   0  0  0  0  0  0  0  0  0  0  0  0
   14.3265   -5.7683   -1.7334 C   0  0  0  0  0  0  0  0  0  0  0  0
   14.7023   -7.1138   -1.9228 C   0  0  0  0  0  0  0  0  0  0  0  0
   15.9322   -7.5796   -1.4262 C   0  0  0  0  0  0  0  0  0  0  0  0
   16.7922   -6.7001   -0.7600 C   0  0  0  0  0  0  0  0  0  0  0  0
   16.3964   -5.3713   -0.5455 C   0  0  0  0  0  0  0  0  0  0  0  0
   15.2313   -3.0387    0.6068 N   0  0  0  0  0  0  0  0  0  0  0  0
   14.2081   -2.6970    1.3866 C   0  0  0  0  0  0  0  0  0  0  0  0
   14.3761   -2.3746    2.6722 N   0  0  0  0  0  0  0  0  0  0  0  0
   13.0452   -2.7268    0.7206 N   0  0  0  0  0  0  0  0  0  0  0  0
   11.7303   -2.3304    1.2406 C   0  0  0  0  0  0  0  0  0  0  0  0
   13.2977   -3.1408   -0.6221 C   0  0  0  0  0  0  0  0  0  0  0  0
   12.4259   -3.2223   -1.4953 O   0  0  0  0  0  0  0  0  0  0  0  0
   15.3168   -1.0203   -1.5415 C   0  0  0  0  0  0  0  0  0  0  0  0
   15.0015    2.0596   -3.4966 C   0  0  0  0  0  0  0  0  0  0  0  0
   14.4602    3.3469   -3.3731 C   0  0  0  0  0  0  0  0  0  0  0  0
   12.1231    6.3329   -2.5520 H   0  0  0  0  0  0  0  0  0  0  0  0
   12.8810    5.3116   -3.8204 H   0  0  0  0  0  0  0  0  0  0  0  0
   11.8316    4.5606   -2.5708 H   0  0  0  0  0  0  0  0  0  0  0  0
   14.8865    3.7933   -0.0210 H   0  0  0  0  0  0  0  0  0  0  0  0
   15.7846    1.4892   -0.2324 H   0  0  0  0  0  0  0  0  0  0  0  0
   16.7739    0.1457   -4.3821 H   0  0  0  0  0  0  0  0  0  0  0  0
   17.1243   -2.2744   -4.7337 H   0  0  0  0  0  0  0  0  0  0  0  0
   16.2061   -3.9208   -3.1179 H   0  0  0  0  0  0  0  0  0  0  0  0
   13.3904   -5.4132   -2.1384 H   0  0  0  0  0  0  0  0  0  0  0  0
   14.0440   -7.7881   -2.4505 H   0  0  0  0  0  0  0  0  0  0  0  0
   16.2125   -8.6141   -1.5587 H   0  0  0  0  0  0  0  0  0  0  0  0
   17.7559   -7.0422   -0.4126 H   0  0  0  0  0  0  0  0  0  0  0  0
   17.0548   -4.7085   -0.0036 H   0  0  0  0  0  0  0  0  0  0  0  0
   16.1822   -3.0504    0.9161 H   0  0  0  0  0  0  0  0  0  0  0  0
   13.5104   -2.1452    3.1171 H   0  0  0  0  0  0  0  0  0  0  0  0
   10.9695   -2.4671    0.4580 H   0  0  0  0  0  0  0  0  0  0  0  0
   11.4771   -2.9538    2.1108 H   0  0  0  0  0  0  0  0  0  0  0  0
   11.7592   -1.2732    1.5430 H   0  0  0  0  0  0  0  0  0  0  0  0
   14.8801   -0.6673   -0.6190 H   0  0  0  0  0  0  0  0  0  0  0  0
   15.0959    1.6116   -4.4748 H   0  0  0  0  0  0  0  0  0  0  0  0
   14.1234    3.8739   -4.2536 H   0  0  0  0  0  0  0  0  0  0  0  0
  1  2  1  0  0  0  0
  2  3  1  0  0  0  0
  3  4  2  0  0  0  0
  3 28  1  0  0  0  0
  4  5  1  0  0  0  0
  5  6  2  0  0  0  0
  6  7  1  0  0  0  0
  6 27  1  0  0  0  0
  7  8  2  0  0  0  0
  7 26  1  0  0  0  0
  8  9  1  0  0  0  0
  9 10  2  0  0  0  0
 10 11  1  0  0  0  0
 11 12  1  0  0  0  0
 11 26  2  0  0  0  0
 12 13  1  0  0  0  0
 12 19  1  0  0  0  0
 12 24  1  0  0  0  0
 13 14  2  0  0  0  0
 13 18  1  0  0  0  0
 14 15  1  0  0  0  0
 15 16  2  0  0  0  0
 16 17  1  0  0  0  0
 17 18  2  0  0  0  0
 19 20  1  0  0  0  0
 20 21  2  0  0  0  0
 20 22  1  0  0  0  0
 22 23  1  0  0  0  0
 22 24  1  0  0  0  0
 24 25  2  0  0  0  0
 27 28  2  0  0  0  0
  1 29  1  0  0  0  0
  1 30  1  0  0  0  0
  1 31  1  0  0  0  0
  4 32  1  0  0  0  0
  5 33  1  0  0  0  0
  8 34  1  0  0  0  0
  9 35  1  0  0  0  0
 10 36  1  0  0  0  0
 14 37  1  0  0  0  0
 15 38  1  0  0  0  0
 16 39  1  0  0  0  0
 17 40  1  0  0  0  0
 18 41  1  0  0  0  0
 19 42  1  0  0  0  0
 21 43  1  0  0  0  0
 23 44  1  0  0  0  0
 23 45  1  0  0  0  0
 23 46  1  0  0  0  0
 26 47  1  0  0  0  0
 27 48  1  0  0  0  0
 28 49  1  0  0  0  0
M  END
> <r_user_dG.exp>
-7.853

$$$$
