CAT-4n
  -OEChem-05162309453D
 Structure written by MMmdl.
 45 48  0     1  0  0  0  0  0999 V2000
   11.6953   -2.1436    1.3064 C   0  0  0  0  0  0  0  0  0  0  0  0
   13.0025   -2.3990    0.6999 N   0  0  0  0  0  0  0  0  0  0  0  0
   14.1917   -2.4863    1.3202 C   0  0  0  0  0  0  0  0  0  0  0  0
   14.4011   -2.3559    2.6348 N   0  0  0  0  0  0  0  0  0  0  0  0
   15.1812   -2.7373    0.4600 N   0  0  0  0  0  0  0  0  0  0  0  0
   14.6758   -2.9528   -0.8941 C   0  0  2  0  0  0  0  0  0  0  0  0
   14.8451   -4.4626   -1.1964 C   0  0  0  0  0  0  0  0  0  0  0  0
   16.0866   -4.9310   -1.6683 C   0  0  0  0  0  0  0  0  0  0  0  0
   16.3077   -6.2911   -1.9317 C   0  0  0  0  0  0  0  0  0  0  0  0
   15.3010   -7.2305   -1.6613 C   0  0  0  0  0  0  0  0  0  0  0  0
   14.0785   -6.8053   -1.1182 C   0  0  0  0  0  0  0  0  0  0  0  0
   13.8521   -5.4364   -0.8930 C   0  0  0  0  0  0  0  0  0  0  0  0
   15.2714   -1.9272   -1.8915 C   0  0  0  0  0  0  0  0  0  0  0  0
   15.7220   -2.2895   -3.1819 C   0  0  0  0  0  0  0  0  0  0  0  0
   16.2633   -1.3220   -4.0414 C   0  0  0  0  0  0  0  0  0  0  0  0
   16.2448    0.0372   -3.6846 C   0  0  0  0  0  0  0  0  0  0  0  0
   15.7216    0.4597   -2.4444 C   0  0  0  0  0  0  0  0  0  0  0  0
   15.5143    1.8981   -2.1461 C   0  0  0  0  0  0  0  0  0  0  0  0
   15.2248    2.8239   -3.1772 C   0  0  0  0  0  0  0  0  0  0  0  0
   14.9106    4.1194   -2.9755 N   0  0  0  0  0  0  0  0  0  0  0  0
   14.8694    4.5737   -1.7085 C   0  0  0  0  0  0  0  0  0  0  0  0
   15.1718    3.7657   -0.6025 C   0  0  0  0  0  0  0  0  0  0  0  0
   15.1261    4.3202    0.7378 C   0  0  0  0  0  0  0  0  0  0  0  0
   15.0921    4.7635    1.8043 N   0  0  0  0  0  0  0  0  0  0  0  0
   15.5071    2.4172   -0.8297 C   0  0  0  0  0  0  0  0  0  0  0  0
   15.3076   -0.5489   -1.5396 C   0  0  0  0  0  0  0  0  0  0  0  0
   13.1927   -2.6018   -0.6954 C   0  0  0  0  0  0  0  0  0  0  0  0
   12.2932   -2.5477   -1.5429 O   0  0  0  0  0  0  0  0  0  0  0  0
   10.9228   -2.1339    0.5234 H   0  0  0  0  0  0  0  0  0  0  0  0
   11.4684   -2.9355    2.0354 H   0  0  0  0  0  0  0  0  0  0  0  0
   11.7121   -1.1693    1.8168 H   0  0  0  0  0  0  0  0  0  0  0  0
   15.3255   -2.4464    3.0053 H   0  0  0  0  0  0  0  0  0  0  0  0
   13.6332   -2.1679    3.2472 H   0  0  0  0  0  0  0  0  0  0  0  0
   16.8882   -4.2258   -1.8314 H   0  0  0  0  0  0  0  0  0  0  0  0
   17.2525   -6.6151   -2.3425 H   0  0  0  0  0  0  0  0  0  0  0  0
   15.4662   -8.2771   -1.8703 H   0  0  0  0  0  0  0  0  0  0  0  0
   13.3139   -7.5279   -0.8740 H   0  0  0  0  0  0  0  0  0  0  0  0
   12.9060   -5.1171   -0.4816 H   0  0  0  0  0  0  0  0  0  0  0  0
   15.6490   -3.3167   -3.5075 H   0  0  0  0  0  0  0  0  0  0  0  0
   16.6970   -1.6236   -4.9834 H   0  0  0  0  0  0  0  0  0  0  0  0
   16.6381    0.7714   -4.3721 H   0  0  0  0  0  0  0  0  0  0  0  0
   15.2579    2.4677   -4.1962 H   0  0  0  0  0  0  0  0  0  0  0  0
   14.5919    5.6032   -1.5367 H   0  0  0  0  0  0  0  0  0  0  0  0
   15.7595    1.7773    0.0029 H   0  0  0  0  0  0  0  0  0  0  0  0
   15.0075   -0.2601   -0.5431 H   0  0  0  0  0  0  0  0  0  0  0  0
  1  2  1  0  0  0  0
  2  3  1  0  0  0  0
  2 27  1  0  0  0  0
  3  4  1  0  0  0  0
  3  5  2  0  0  0  0
  5  6  1  0  0  0  0
  6  7  1  0  0  0  0
  6 13  1  0  0  0  0
  6 27  1  0  0  0  0
  7  8  2  0  0  0  0
  7 12  1  0  0  0  0
  8  9  1  0  0  0  0
  9 10  2  0  0  0  0
 10 11  1  0  0  0  0
 11 12  2  0  0  0  0
 13 14  2  0  0  0  0
 13 26  1  0  0  0  0
 14 15  1  0  0  0  0
 15 16  2  0  0  0  0
 16 17  1  0  0  0  0
 17 18  1  0  0  0  0
 17 26  2  0  0  0  0
 18 19  2  0  0  0  0
 18 25  1  0  0  0  0
 19 20  1  0  0  0  0
 20 21  2  0  0  0  0
 21 22  1  0  0  0  0
 22 23  1  0  0  0  0
 22 25  2  0  0  0  0
 23 24  3  0  0  0  0
 27 28  2  0  0  0  0
  1 29  1  0  0  0  0
  1 30  1  0  0  0  0
  1 31  1  0  0  0  0
  4 32  1  0  0  0  0
  4 33  1  0  0  0  0
  8 34  1  0  0  0  0
  9 35  1  0  0  0  0
 10 36  1  0  0  0  0
 11 37  1  0  0  0  0
 12 38  1  0  0  0  0
 14 39  1  0  0  0  0
 15 40  1  0  0  0  0
 16 41  1  0  0  0  0
 19 42  1  0  0  0  0
 21 43  1  0  0  0  0
 25 44  1  0  0  0  0
 26 45  1  0  0  0  0
M  END
> <r_user_dG.exp>
-9.093

$$$$
CAT-4n
  -OEChem-05162309453D
 Structure written by MMmdl.
 45 48  0     1  0  0  0  0  0999 V2000
   11.6953   -2.1436    1.3064 C   0  0  0  0  0  0  0  0  0  0  0  0
   13.0025   -2.3990    0.6999 N   0  0  0  0  0  0  0  0  0  0  0  0
   14.1917   -2.4863    1.3202 C   0  0  0  0  0  0  0  0  0  0  0  0
   14.4011   -2.3559    2.6348 N   0  0  0  0  0  0  0  0  0  0  0  0
   15.1812   -2.7373    0.4600 N   0  0  0  0  0  0  0  0  0  0  0  0
   14.6758   -2.9528   -0.8941 C   0  0  2  0  0  0  0  0  0  0  0  0
   14.8451   -4.4626   -1.1964 C   0  0  0  0  0  0  0  0  0  0  0  0
   16.0866   -4.9310   -1.6683 C   0  0  0  0  0  0  0  0  0  0  0  0
   16.3077   -6.2911   -1.9317 C   0  0  0  0  0  0  0  0  0  0  0  0
   15.3010   -7.2305   -1.6613 C   0  0  0  0  0  0  0  0  0  0  0  0
   14.0785   -6.8053   -1.1182 C   0  0  0  0  0  0  0  0  0  0  0  0
   13.8521   -5.4364   -0.8930 C   0  0  0  0  0  0  0  0  0  0  0  0
   15.2714   -1.9272   -1.8915 C   0  0  0  0  0  0  0  0  0  0  0  0
   15.7220   -2.2895   -3.1819 C   0  0  0  0  0  0  0  0  0  0  0  0
   16.2633   -1.3220   -4.0414 C   0  0  0  0  0  0  0  0  0  0  0  0
   16.2448    0.0372   -3.6846 C   0  0  0  0  0  0  0  0  0  0  0  0
   15.7216    0.4597   -2.4444 C   0  0  0  0  0  0  0  0  0  0  0  0
   15.5143    1.8981   -2.1461 C   0  0  0  0  0  0  0  0  0  0  0  0
   15.2248    2.8239   -3.1772 C   0  0  0  0  0  0  0  0  0  0  0  0
   14.9106    4.1194   -2.9755 N   0  0  0  0  0  0  0  0  0  0  0  0
   14.8694    4.5737   -1.7085 C   0  0  0  0  0  0  0  0  0  0  0  0
   15.1718    3.7657   -0.6025 C   0  0  0  0  0  0  0  0  0  0  0  0
   15.1261    4.3202    0.7378 C   0  0  0  0  0  0  0  0  0  0  0  0
   15.0921    4.7635    1.8043 N   0  0  0  0  0  0  0  0  0  0  0  0
   15.5071    2.4172   -0.8297 C   0  0  0  0  0  0  0  0  0  0  0  0
   15.3076   -0.5489   -1.5396 C   0  0  0  0  0  0  0  0  0  0  0  0
   13.1927   -2.6018   -0.6954 C   0  0  0  0  0  0  0  0  0  0  0  0
   12.2932   -2.5477   -1.5429 O   0  0  0  0  0  0  0  0  0  0  0  0
   10.9228   -2.1339    0.5234 H   0  0  0  0  0  0  0  0  0  0  0  0
   11.4684   -2.9355    2.0354 H   0  0  0  0  0  0  0  0  0  0  0  0
   11.7121   -1.1693    1.8168 H   0  0  0  0  0  0  0  0  0  0  0  0
   15.3657   -2.4685    2.8735 H   0  0  0  0  0  0  0  0  0  0  0  0
   16.1485   -2.7734    0.7111 H   0  0  0  0  0  0  0  0  0  0  0  0
   16.8882   -4.2258   -1.8314 H   0  0  0  0  0  0  0  0  0  0  0  0
   17.2525   -6.6151   -2.3425 H   0  0  0  0  0  0  0  0  0  0  0  0
   15.4662   -8.2771   -1.8703 H   0  0  0  0  0  0  0  0  0  0  0  0
   13.3139   -7.5279   -0.8740 H   0  0  0  0  0  0  0  0  0  0  0  0
   12.9060   -5.1171   -0.4816 H   0  0  0  0  0  0  0  0  0  0  0  0
   15.6490   -3.3167   -3.5075 H   0  0  0  0  0  0  0  0  0  0  0  0
   16.6970   -1.6236   -4.9834 H   0  0  0  0  0  0  0  0  0  0  0  0
   16.6381    0.7714   -4.3721 H   0  0  0  0  0  0  0  0  0  0  0  0
   15.2579    2.4677   -4.1962 H   0  0  0  0  0  0  0  0  0  0  0  0
   14.5919    5.6032   -1.5367 H   0  0  0  0  0  0  0  0  0  0  0  0
   15.7595    1.7773    0.0029 H   0  0  0  0  0  0  0  0  0  0  0  0
   15.0075   -0.2601   -0.5431 H   0  0  0  0  0  0  0  0  0  0  0  0
  1  2  1  0  0  0  0
  2  3  1  0  0  0  0
  2 27  1  0  0  0  0
  3  4  2  0  0  0  0
  3  5  1  0  0  0  0
  5  6  1  0  0  0  0
  6  7  1  0  0  0  0
  6 13  1  0  0  0  0
  6 27  1  0  0  0  0
  7  8  2  0  0  0  0
  7 12  1  0  0  0  0
  8  9  1  0  0  0  0
  9 10  2  0  0  0  0
 10 11  1  0  0  0  0
 11 12  2  0  0  0  0
 13 14  2  0  0  0  0
 13 26  1  0  0  0  0
 14 15  1  0  0  0  0
 15 16  2  0  0  0  0
 16 17  1  0  0  0  0
 17 18  1  0  0  0  0
 17 26  2  0  0  0  0
 18 19  2  0  0  0  0
 18 25  1  0  0  0  0
 19 20  1  0  0  0  0
 20 21  2  0  0  0  0
 21 22  1  0  0  0  0
 22 23  1  0  0  0  0
 22 25  2  0  0  0  0
 23 24  3  0  0  0  0
 27 28  2  0  0  0  0
  1 29  1  0  0  0  0
  1 30  1  0  0  0  0
  1 31  1  0  0  0  0
  4 32  1  0  0  0  0
  5 33  1  0  0  0  0
  8 34  1  0  0  0  0
  9 35  1  0  0  0  0
 10 36  1  0  0  0  0
 11 37  1  0  0  0  0
 12 38  1  0  0  0  0
 14 39  1  0  0  0  0
 15 40  1  0  0  0  0
 16 41  1  0  0  0  0
 19 42  1  0  0  0  0
 21 43  1  0  0  0  0
 25 44  1  0  0  0  0
 26 45  1  0  0  0  0
M  END
> <r_user_dG.exp>
-9.093

$$$$
