CAT-24
  -OEChem-05162309453D
 Structure written by MMmdl.
 46 49  0     1  0  0  0  0  0999 V2000
   15.3153    5.5063    2.8950 C   0  0  0  0  0  0  0  0  0  0  0  0
   15.2763    4.6943    1.6710 C   0  0  0  0  0  0  0  0  0  0  0  0
   15.2920    4.0725    0.6202 C   0  0  0  0  0  0  0  0  0  0  0  0
   15.3508    3.4487   -0.6906 C   0  0  0  0  0  0  0  0  0  0  0  0
   15.1653    4.2390   -1.8343 C   0  0  0  0  0  0  0  0  0  0  0  0
   15.2379    3.7478   -3.0807 N   0  0  0  0  0  0  0  0  0  0  0  0
   15.4741    2.4308   -3.2306 C   0  0  0  0  0  0  0  0  0  0  0  0
   15.6500    1.5168   -2.1649 C   0  0  0  0  0  0  0  0  0  0  0  0
   15.8251    0.0635   -2.4272 C   0  0  0  0  0  0  0  0  0  0  0  0
   16.3445   -0.3778   -3.6611 C   0  0  0  0  0  0  0  0  0  0  0  0
   16.4139   -1.7402   -3.9775 C   0  0  0  0  0  0  0  0  0  0  0  0
   15.9405   -2.7037   -3.0749 C   0  0  0  0  0  0  0  0  0  0  0  0
   15.4459   -2.3239   -1.8037 C   0  0  0  0  0  0  0  0  0  0  0  0
   14.8513   -3.3203   -0.7684 C   0  0  1  0  0  0  0  0  0  0  0  0
   15.0823   -4.8499   -0.8614 C   0  0  0  0  0  0  0  0  0  0  0  0
   14.8182   -5.7095   -2.0747 C   0  0  0  0  0  0  0  0  0  0  0  0
   16.2251   -5.5702   -1.5443 C   0  0  0  0  0  0  0  0  0  0  0  0
   15.2665   -2.9519    0.5806 N   0  0  0  0  0  0  0  0  0  0  0  0
   14.2391   -2.5906    1.3479 C   0  0  0  0  0  0  0  0  0  0  0  0
   14.3969   -2.2856    2.6385 N   0  0  0  0  0  0  0  0  0  0  0  0
   13.0817   -2.6029    0.6692 N   0  0  0  0  0  0  0  0  0  0  0  0
   11.7632   -2.2010    1.1743 C   0  0  0  0  0  0  0  0  0  0  0  0
   13.3393   -3.0536   -0.6601 C   0  0  0  0  0  0  0  0  0  0  0  0
   12.4758   -3.1864   -1.5335 O   0  0  0  0  0  0  0  0  0  0  0  0
   15.4218   -0.9298   -1.5003 C   0  0  0  0  0  0  0  0  0  0  0  0
   15.6013    2.0714   -0.8642 C   0  0  0  0  0  0  0  0  0  0  0  0
   14.6948    5.0325    3.6699 H   0  0  0  0  0  0  0  0  0  0  0  0
   16.3531    5.5818    3.2519 H   0  0  0  0  0  0  0  0  0  0  0  0
   14.9275    6.5129    2.6796 H   0  0  0  0  0  0  0  0  0  0  0  0
   14.9545    5.2904   -1.7059 H   0  0  0  0  0  0  0  0  0  0  0  0
   15.5336    2.0440   -4.2372 H   0  0  0  0  0  0  0  0  0  0  0  0
   16.6962    0.3500   -4.3774 H   0  0  0  0  0  0  0  0  0  0  0  0
   16.8346   -2.0509   -4.9224 H   0  0  0  0  0  0  0  0  0  0  0  0
   15.9534   -3.7473   -3.3527 H   0  0  0  0  0  0  0  0  0  0  0  0
   14.7816   -5.3543    0.0687 H   0  0  0  0  0  0  0  0  0  0  0  0
   14.2818   -6.6637   -1.9660 H   0  0  0  0  0  0  0  0  0  0  0  0
   14.5424   -5.2407   -3.0308 H   0  0  0  0  0  0  0  0  0  0  0  0
   16.9736   -4.9993   -2.1133 H   0  0  0  0  0  0  0  0  0  0  0  0
   16.7131   -6.4223   -1.0485 H   0  0  0  0  0  0  0  0  0  0  0  0
   15.3056   -2.3251    3.0541 H   0  0  0  0  0  0  0  0  0  0  0  0
   13.6064   -2.0177    3.1893 H   0  0  0  0  0  0  0  0  0  0  0  0
   11.0125   -2.3242    0.3798 H   0  0  0  0  0  0  0  0  0  0  0  0
   11.4929   -2.8305    2.0349 H   0  0  0  0  0  0  0  0  0  0  0  0
   11.7962   -1.1469    1.4871 H   0  0  0  0  0  0  0  0  0  0  0  0
   15.0820   -0.6186   -0.5235 H   0  0  0  0  0  0  0  0  0  0  0  0
   15.7562    1.4390   -0.0025 H   0  0  0  0  0  0  0  0  0  0  0  0
  1  2  1  0  0  0  0
  2  3  3  0  0  0  0
  3  4  1  0  0  0  0
  4  5  2  0  0  0  0
  4 26  1  0  0  0  0
  5  6  1  0  0  0  0
  6  7  2  0  0  0  0
  7  8  1  0  0  0  0
  8  9  1  0  0  0  0
  8 26  2  0  0  0  0
  9 10  2  0  0  0  0
  9 25  1  0  0  0  0
 10 11  1  0  0  0  0
 11 12  2  0  0  0  0
 12 13  1  0  0  0  0
 13 14  1  0  0  0  0
 13 25  2  0  0  0  0
 14 15  1  0  0  0  0
 14 18  1  0  0  0  0
 14 23  1  0  0  0  0
 15 16  1  0  0  0  0
 15 17  1  0  0  0  0
 16 17  1  0  0  0  0
 18 19  2  0  0  0  0
 19 20  1  0  0  0  0
 19 21  1  0  0  0  0
 21 22  1  0  0  0  0
 21 23  1  0  0  0  0
 23 24  2  0  0  0  0
  1 27  1  0  0  0  0
  1 28  1  0  0  0  0
  1 29  1  0  0  0  0
  5 30  1  0  0  0  0
  7 31  1  0  0  0  0
 10 32  1  0  0  0  0
 11 33  1  0  0  0  0
 12 34  1  0  0  0  0
 15 35  1  0  0  0  0
 16 36  1  0  0  0  0
 16 37  1  0  0  0  0
 17 38  1  0  0  0  0
 17 39  1  0  0  0  0
 20 40  1  0  0  0  0
 20 41  1  0  0  0  0
 22 42  1  0  0  0  0
 22 43  1  0  0  0  0
 22 44  1  0  0  0  0
 25 45  1  0  0  0  0
 26 46  1  0  0  0  0
M  END
> <r_user_dG.exp>
-11.35

$$$$
CAT-24
  -OEChem-05162309453D
 Structure written by MMmdl.
 46 49  0     1  0  0  0  0  0999 V2000
   15.3153    5.5063    2.8950 C   0  0  0  0  0  0  0  0  0  0  0  0
   15.2763    4.6943    1.6710 C   0  0  0  0  0  0  0  0  0  0  0  0
   15.2920    4.0725    0.6202 C   0  0  0  0  0  0  0  0  0  0  0  0
   15.3508    3.4487   -0.6906 C   0  0  0  0  0  0  0  0  0  0  0  0
   15.1653    4.2390   -1.8343 C   0  0  0  0  0  0  0  0  0  0  0  0
   15.2379    3.7478   -3.0807 N   0  0  0  0  0  0  0  0  0  0  0  0
   15.4741    2.4308   -3.2306 C   0  0  0  0  0  0  0  0  0  0  0  0
   15.6500    1.5168   -2.1649 C   0  0  0  0  0  0  0  0  0  0  0  0
   15.8251    0.0635   -2.4272 C   0  0  0  0  0  0  0  0  0  0  0  0
   16.3445   -0.3778   -3.6611 C   0  0  0  0  0  0  0  0  0  0  0  0
   16.4139   -1.7402   -3.9775 C   0  0  0  0  0  0  0  0  0  0  0  0
   15.9405   -2.7037   -3.0749 C   0  0  0  0  0  0  0  0  0  0  0  0
   15.4459   -2.3239   -1.8037 C   0  0  0  0  0  0  0  0  0  0  0  0
   14.8513   -3.3203   -0.7684 C   0  0  1  0  0  0  0  0  0  0  0  0
   15.0823   -4.8499   -0.8614 C   0  0  0  0  0  0  0  0  0  0  0  0
   14.8182   -5.7095   -2.0747 C   0  0  0  0  0  0  0  0  0  0  0  0
   16.2251   -5.5702   -1.5443 C   0  0  0  0  0  0  0  0  0  0  0  0
   15.2665   -2.9519    0.5806 N   0  0  0  0  0  0  0  0  0  0  0  0
   14.2391   -2.5906    1.3479 C   0  0  0  0  0  0  0  0  0  0  0  0
   14.3969   -2.2856    2.6385 N   0  0  0  0  0  0  0  0  0  0  0  0
   13.0817   -2.6029    0.6692 N   0  0  0  0  0  0  0  0  0  0  0  0
   11.7632   -2.2010    1.1743 C   0  0  0  0  0  0  0  0  0  0  0  0
   13.3393   -3.0536   -0.6601 C   0  0  0  0  0  0  0  0  0  0  0  0
   12.4758   -3.1864   -1.5335 O   0  0  0  0  0  0  0  0  0  0  0  0
   15.4218   -0.9298   -1.5003 C   0  0  0  0  0  0  0  0  0  0  0  0
   15.6013    2.0714   -0.8642 C   0  0  0  0  0  0  0  0  0  0  0  0
   14.6948    5.0325    3.6699 H   0  0  0  0  0  0  0  0  0  0  0  0
   16.3531    5.5818    3.2519 H   0  0  0  0  0  0  0  0  0  0  0  0
   14.9275    6.5129    2.6796 H   0  0  0  0  0  0  0  0  0  0  0  0
   14.9545    5.2904   -1.7059 H   0  0  0  0  0  0  0  0  0  0  0  0
   15.5336    2.0440   -4.2372 H   0  0  0  0  0  0  0  0  0  0  0  0
   16.6962    0.3500   -4.3774 H   0  0  0  0  0  0  0  0  0  0  0  0
   16.8346   -2.0509   -4.9224 H   0  0  0  0  0  0  0  0  0  0  0  0
   15.9534   -3.7473   -3.3527 H   0  0  0  0  0  0  0  0  0  0  0  0
   14.7816   -5.3543    0.0687 H   0  0  0  0  0  0  0  0  0  0  0  0
   14.2818   -6.6637   -1.9660 H   0  0  0  0  0  0  0  0  0  0  0  0
   14.5424   -5.2407   -3.0308 H   0  0  0  0  0  0  0  0  0  0  0  0
   16.9736   -4.9993   -2.1133 H   0  0  0  0  0  0  0  0  0  0  0  0
   16.7131   -6.4223   -1.0485 H   0  0  0  0  0  0  0  0  0  0  0  0
   16.2159   -2.9687    0.8943 H   0  0  0  0  0  0  0  0  0  0  0  0
   13.5287   -2.0547    3.0777 H   0  0  0  0  0  0  0  0  0  0  0  0
   11.0125   -2.3242    0.3798 H   0  0  0  0  0  0  0  0  0  0  0  0
   11.4929   -2.8305    2.0349 H   0  0  0  0  0  0  0  0  0  0  0  0
   11.7962   -1.1469    1.4871 H   0  0  0  0  0  0  0  0  0  0  0  0
   15.0820   -0.6186   -0.5235 H   0  0  0  0  0  0  0  0  0  0  0  0
   15.7562    1.4390   -0.0025 H   0  0  0  0  0  0  0  0  0  0  0  0
  1  2  1  0  0  0  0
  2  3  3  0  0  0  0
  3  4  1  0  0  0  0
  4  5  2  0  0  0  0
  4 26  1  0  0  0  0
  5  6  1  0  0  0  0
  6  7  2  0  0  0  0
  7  8  1  0  0  0  0
  8  9  1  0  0  0  0
  8 26  2  0  0  0  0
  9 10  2  0  0  0  0
  9 25  1  0  0  0  0
 10 11  1  0  0  0  0
 11 12  2  0  0  0  0
 12 13  1  0  0  0  0
 13 14  1  0  0  0  0
 13 25  2  0  0  0  0
 14 15  1  0  0  0  0
 14 18  1  0  0  0  0
 14 23  1  0  0  0  0
 15 16  1  0  0  0  0
 15 17  1  0  0  0  0
 16 17  1  0  0  0  0
 18 19  1  0  0  0  0
 19 20  2  0  0  0  0
 19 21  1  0  0  0  0
 21 22  1  0  0  0  0
 21 23  1  0  0  0  0
 23 24  2  0  0  0  0
  1 27  1  0  0  0  0
  1 28  1  0  0  0  0
  1 29  1  0  0  0  0
  5 30  1  0  0  0  0
  7 31  1  0  0  0  0
 10 32  1  0  0  0  0
 11 33  1  0  0  0  0
 12 34  1  0  0  0  0
 15 35  1  0  0  0  0
 16 36  1  0  0  0  0
 16 37  1  0  0  0  0
 17 38  1  0  0  0  0
 17 39  1  0  0  0  0
 18 40  1  0  0  0  0
 20 41  1  0  0  0  0
 22 42  1  0  0  0  0
 22 43  1  0  0  0  0
 22 44  1  0  0  0  0
 25 45  1  0  0  0  0
 26 46  1  0  0  0  0
M  END
> <r_user_dG.exp>
-11.35

$$$$
