CAT-13f
  -OEChem-05162309453D
 Structure written by MMmdl.
 48 51  0     1  0  0  0  0  0999 V2000
   11.8157   -1.9869    1.1350 C   0  0  0  0  0  0  0  0  0  0  0  0
   13.0892   -2.4266    0.5571 N   0  0  0  0  0  0  0  0  0  0  0  0
   14.2593   -2.5968    1.1965 C   0  0  0  0  0  0  0  0  0  0  0  0
   14.4700   -2.4087    2.5072 N   0  0  0  0  0  0  0  0  0  0  0  0
   15.2262   -2.9956    0.3604 N   0  0  0  0  0  0  0  0  0  0  0  0
   14.7421   -3.1088   -1.0217 C   0  0  1  0  0  0  0  0  0  0  0  0
   15.3912   -2.0431   -1.9333 C   0  0  0  0  0  0  0  0  0  0  0  0
   15.9757   -2.3788   -3.1775 C   0  0  0  0  0  0  0  0  0  0  0  0
   16.4916   -1.3794   -4.0129 C   0  0  0  0  0  0  0  0  0  0  0  0
   16.3751   -0.0274   -3.6532 C   0  0  0  0  0  0  0  0  0  0  0  0
   15.8017    0.3581   -2.4240 C   0  0  0  0  0  0  0  0  0  0  0  0
   15.5995    1.7924   -2.0988 C   0  0  0  0  0  0  0  0  0  0  0  0
   15.3381    2.7307   -3.1262 C   0  0  0  0  0  0  0  0  0  0  0  0
   15.0417    4.0765   -2.8331 C   0  0  0  0  0  0  0  0  0  0  0  0
   15.0158    4.5162   -1.5001 C   0  0  0  0  0  0  0  0  0  0  0  0
   15.3137    3.6154   -0.4660 C   0  0  0  0  0  0  0  0  0  0  0  0
   15.3090    4.1775    1.1646 Cl  0  0  0  0  0  0  0  0  0  0  0  0
   15.6022    2.2676   -0.7658 C   0  0  0  0  0  0  0  0  0  0  0  0
   15.3586   -0.6707   -1.5583 C   0  0  0  0  0  0  0  0  0  0  0  0
   14.8186   -4.5906   -1.5373 C   0  0  0  0  0  0  0  0  0  0  0  0
   16.1991   -5.2608   -1.5318 C   0  0  0  0  0  0  0  0  0  0  0  0
   15.9158   -6.7438   -1.7752 C   0  0  0  0  0  0  0  0  0  0  0  0
   14.5202   -7.0043   -1.1990 C   0  0  0  0  0  0  0  0  0  0  0  0
   13.9603   -5.6347   -0.7926 C   0  0  0  0  0  0  0  0  0  0  0  0
   13.2678   -2.7202   -0.8247 C   0  0  0  0  0  0  0  0  0  0  0  0
   12.3711   -2.6827   -1.6743 O   0  0  0  0  0  0  0  0  0  0  0  0
   11.0487   -1.9489    0.3474 H   0  0  0  0  0  0  0  0  0  0  0  0
   11.5038   -2.6954    1.9165 H   0  0  0  0  0  0  0  0  0  0  0  0
   11.9389   -0.9864    1.5751 H   0  0  0  0  0  0  0  0  0  0  0  0
   15.3779   -2.5670    2.8955 H   0  0  0  0  0  0  0  0  0  0  0  0
   13.7193   -2.1101    3.0965 H   0  0  0  0  0  0  0  0  0  0  0  0
   16.0245   -3.4129   -3.4853 H   0  0  0  0  0  0  0  0  0  0  0  0
   16.9807   -1.6501   -4.9370 H   0  0  0  0  0  0  0  0  0  0  0  0
   16.7320    0.7331   -4.3319 H   0  0  0  0  0  0  0  0  0  0  0  0
   15.3665    2.4080   -4.1565 H   0  0  0  0  0  0  0  0  0  0  0  0
   14.8343    4.7703   -3.6344 H   0  0  0  0  0  0  0  0  0  0  0  0
   14.7679    5.5422   -1.2716 H   0  0  0  0  0  0  0  0  0  0  0  0
   15.8299    1.5840    0.0387 H   0  0  0  0  0  0  0  0  0  0  0  0
   14.9834   -0.4052   -0.5810 H   0  0  0  0  0  0  0  0  0  0  0  0
   14.4718   -4.5779   -2.5811 H   0  0  0  0  0  0  0  0  0  0  0  0
   16.8318   -4.8508   -2.3328 H   0  0  0  0  0  0  0  0  0  0  0  0
   16.6962   -5.1157   -0.5613 H   0  0  0  0  0  0  0  0  0  0  0  0
   15.9324   -6.9648   -2.8526 H   0  0  0  0  0  0  0  0  0  0  0  0
   16.6640   -7.3656   -1.2618 H   0  0  0  0  0  0  0  0  0  0  0  0
   13.8750   -7.4694   -1.9589 H   0  0  0  0  0  0  0  0  0  0  0  0
   14.5874   -7.6641   -0.3214 H   0  0  0  0  0  0  0  0  0  0  0  0
   14.0446   -5.4941    0.2951 H   0  0  0  0  0  0  0  0  0  0  0  0
   12.9057   -5.5478   -1.0929 H   0  0  0  0  0  0  0  0  0  0  0  0
  1  2  1  0  0  0  0
  2  3  1  0  0  0  0
  2 25  1  0  0  0  0
  3  4  1  0  0  0  0
  3  5  2  0  0  0  0
  5  6  1  0  0  0  0
  6  7  1  0  0  0  0
  6 20  1  0  0  0  0
  6 25  1  0  0  0  0
  7  8  2  0  0  0  0
  7 19  1  0  0  0  0
  8  9  1  0  0  0  0
  9 10  2  0  0  0  0
 10 11  1  0  0  0  0
 11 12  1  0  0  0  0
 11 19  2  0  0  0  0
 12 13  2  0  0  0  0
 12 18  1  0  0  0  0
 13 14  1  0  0  0  0
 14 15  2  0  0  0  0
 15 16  1  0  0  0  0
 16 17  1  0  0  0  0
 16 18  2  0  0  0  0
 20 21  1  0  0  0  0
 20 24  1  0  0  0  0
 21 22  1  0  0  0  0
 22 23  1  0  0  0  0
 23 24  1  0  0  0  0
 25 26  2  0  0  0  0
  1 27  1  0  0  0  0
  1 28  1  0  0  0  0
  1 29  1  0  0  0  0
  4 30  1  0  0  0  0
  4 31  1  0  0  0  0
  8 32  1  0  0  0  0
  9 33  1  0  0  0  0
 10 34  1  0  0  0  0
 13 35  1  0  0  0  0
 14 36  1  0  0  0  0
 15 37  1  0  0  0  0
 18 38  1  0  0  0  0
 19 39  1  0  0  0  0
 20 40  1  0  0  0  0
 21 41  1  0  0  0  0
 21 42  1  0  0  0  0
 22 43  1  0  0  0  0
 22 44  1  0  0  0  0
 23 45  1  0  0  0  0
 23 46  1  0  0  0  0
 24 47  1  0  0  0  0
 24 48  1  0  0  0  0
M  END
> <r_user_dG.exp>
-9.093

$$$$
CAT-13f
  -OEChem-05162309453D
 Structure written by MMmdl.
 48 51  0     1  0  0  0  0  0999 V2000
   11.8157   -1.9869    1.1350 C   0  0  0  0  0  0  0  0  0  0  0  0
   13.0892   -2.4266    0.5571 N   0  0  0  0  0  0  0  0  0  0  0  0
   14.2593   -2.5968    1.1965 C   0  0  0  0  0  0  0  0  0  0  0  0
   14.4700   -2.4087    2.5072 N   0  0  0  0  0  0  0  0  0  0  0  0
   15.2262   -2.9956    0.3604 N   0  0  0  0  0  0  0  0  0  0  0  0
   14.7421   -3.1088   -1.0217 C   0  0  1  0  0  0  0  0  0  0  0  0
   15.3912   -2.0431   -1.9333 C   0  0  0  0  0  0  0  0  0  0  0  0
   15.9757   -2.3788   -3.1775 C   0  0  0  0  0  0  0  0  0  0  0  0
   16.4916   -1.3794   -4.0129 C   0  0  0  0  0  0  0  0  0  0  0  0
   16.3751   -0.0274   -3.6532 C   0  0  0  0  0  0  0  0  0  0  0  0
   15.8017    0.3581   -2.4240 C   0  0  0  0  0  0  0  0  0  0  0  0
   15.5995    1.7924   -2.0988 C   0  0  0  0  0  0  0  0  0  0  0  0
   15.3381    2.7307   -3.1262 C   0  0  0  0  0  0  0  0  0  0  0  0
   15.0417    4.0765   -2.8331 C   0  0  0  0  0  0  0  0  0  0  0  0
   15.0158    4.5162   -1.5001 C   0  0  0  0  0  0  0  0  0  0  0  0
   15.3137    3.6154   -0.4660 C   0  0  0  0  0  0  0  0  0  0  0  0
   15.3090    4.1775    1.1646 Cl  0  0  0  0  0  0  0  0  0  0  0  0
   15.6022    2.2676   -0.7658 C   0  0  0  0  0  0  0  0  0  0  0  0
   15.3586   -0.6707   -1.5583 C   0  0  0  0  0  0  0  0  0  0  0  0
   14.8186   -4.5906   -1.5373 C   0  0  0  0  0  0  0  0  0  0  0  0
   16.1991   -5.2608   -1.5318 C   0  0  0  0  0  0  0  0  0  0  0  0
   15.9158   -6.7438   -1.7752 C   0  0  0  0  0  0  0  0  0  0  0  0
   14.5202   -7.0043   -1.1990 C   0  0  0  0  0  0  0  0  0  0  0  0
   13.9603   -5.6347   -0.7926 C   0  0  0  0  0  0  0  0  0  0  0  0
   13.2678   -2.7202   -0.8247 C   0  0  0  0  0  0  0  0  0  0  0  0
   12.3711   -2.6827   -1.6743 O   0  0  0  0  0  0  0  0  0  0  0  0
   11.0487   -1.9489    0.3474 H   0  0  0  0  0  0  0  0  0  0  0  0
   11.5038   -2.6954    1.9165 H   0  0  0  0  0  0  0  0  0  0  0  0
   11.9389   -0.9864    1.5751 H   0  0  0  0  0  0  0  0  0  0  0  0
   15.4167   -2.6007    2.7658 H   0  0  0  0  0  0  0  0  0  0  0  0
   16.1650   -3.1927    0.6430 H   0  0  0  0  0  0  0  0  0  0  0  0
   16.0245   -3.4129   -3.4853 H   0  0  0  0  0  0  0  0  0  0  0  0
   16.9807   -1.6501   -4.9370 H   0  0  0  0  0  0  0  0  0  0  0  0
   16.7320    0.7331   -4.3319 H   0  0  0  0  0  0  0  0  0  0  0  0
   15.3665    2.4080   -4.1565 H   0  0  0  0  0  0  0  0  0  0  0  0
   14.8343    4.7703   -3.6344 H   0  0  0  0  0  0  0  0  0  0  0  0
   14.7679    5.5422   -1.2716 H   0  0  0  0  0  0  0  0  0  0  0  0
   15.8299    1.5840    0.0387 H   0  0  0  0  0  0  0  0  0  0  0  0
   14.9834   -0.4052   -0.5810 H   0  0  0  0  0  0  0  0  0  0  0  0
   14.4718   -4.5779   -2.5811 H   0  0  0  0  0  0  0  0  0  0  0  0
   16.8318   -4.8508   -2.3328 H   0  0  0  0  0  0  0  0  0  0  0  0
   16.6962   -5.1157   -0.5613 H   0  0  0  0  0  0  0  0  0  0  0  0
   15.9324   -6.9648   -2.8526 H   0  0  0  0  0  0  0  0  0  0  0  0
   16.6640   -7.3656   -1.2618 H   0  0  0  0  0  0  0  0  0  0  0  0
   13.8750   -7.4694   -1.9589 H   0  0  0  0  0  0  0  0  0  0  0  0
   14.5874   -7.6641   -0.3214 H   0  0  0  0  0  0  0  0  0  0  0  0
   14.0446   -5.4941    0.2951 H   0  0  0  0  0  0  0  0  0  0  0  0
   12.9057   -5.5478   -1.0929 H   0  0  0  0  0  0  0  0  0  0  0  0
  1  2  1  0  0  0  0
  2  3  1  0  0  0  0
  2 25  1  0  0  0  0
  3  4  2  0  0  0  0
  3  5  1  0  0  0  0
  5  6  1  0  0  0  0
  6  7  1  0  0  0  0
  6 20  1  0  0  0  0
  6 25  1  0  0  0  0
  7  8  2  0  0  0  0
  7 19  1  0  0  0  0
  8  9  1  0  0  0  0
  9 10  2  0  0  0  0
 10 11  1  0  0  0  0
 11 12  1  0  0  0  0
 11 19  2  0  0  0  0
 12 13  2  0  0  0  0
 12 18  1  0  0  0  0
 13 14  1  0  0  0  0
 14 15  2  0  0  0  0
 15 16  1  0  0  0  0
 16 17  1  0  0  0  0
 16 18  2  0  0  0  0
 20 21  1  0  0  0  0
 20 24  1  0  0  0  0
 21 22  1  0  0  0  0
 22 23  1  0  0  0  0
 23 24  1  0  0  0  0
 25 26  2  0  0  0  0
  1 27  1  0  0  0  0
  1 28  1  0  0  0  0
  1 29  1  0  0  0  0
  4 30  1  0  0  0  0
  5 31  1  0  0  0  0
  8 32  1  0  0  0  0
  9 33  1  0  0  0  0
 10 34  1  0  0  0  0
 13 35  1  0  0  0  0
 14 36  1  0  0  0  0
 15 37  1  0  0  0  0
 18 38  1  0  0  0  0
 19 39  1  0  0  0  0
 20 40  1  0  0  0  0
 21 41  1  0  0  0  0
 21 42  1  0  0  0  0
 22 43  1  0  0  0  0
 22 44  1  0  0  0  0
 23 45  1  0  0  0  0
 23 46  1  0  0  0  0
 24 47  1  0  0  0  0
 24 48  1  0  0  0  0
M  END
> <r_user_dG.exp>
-9.093

$$$$
