CAT-13e
  -OEChem-05192314073D
 Structure written by MMmdl.
 45 48  0     1  0  0  0  0  0999 V2000
   11.8366   -2.0143    1.1169 C   0  0  0  0  0  0  0  0  0  0  0  0
   13.1188   -2.4437    0.5483 N   0  0  0  0  0  0  0  0  0  0  0  0
   14.2835   -2.6029    1.1994 C   0  0  0  0  0  0  0  0  0  0  0  0
   14.4756   -2.4186    2.5137 N   0  0  0  0  0  0  0  0  0  0  0  0
   15.2647   -2.9842    0.3717 N   0  0  0  0  0  0  0  0  0  0  0  0
   14.8037   -3.0771   -1.0176 C   0  0  1  0  0  0  0  0  0  0  0  0
   15.4609   -2.0005   -1.9043 C   0  0  0  0  0  0  0  0  0  0  0  0
   16.1507   -2.3399   -3.0923 C   0  0  0  0  0  0  0  0  0  0  0  0
   16.6412   -1.3353   -3.9384 C   0  0  0  0  0  0  0  0  0  0  0  0
   16.4312    0.0173   -3.6223 C   0  0  0  0  0  0  0  0  0  0  0  0
   15.8006    0.4013   -2.4216 C   0  0  0  0  0  0  0  0  0  0  0  0
   15.5617    1.8313   -2.1119 C   0  0  0  0  0  0  0  0  0  0  0  0
   15.2806    2.7552   -3.1459 C   0  0  0  0  0  0  0  0  0  0  0  0
   14.9680    4.0995   -2.8611 C   0  0  0  0  0  0  0  0  0  0  0  0
   14.9450    4.5495   -1.5306 C   0  0  0  0  0  0  0  0  0  0  0  0
   15.2585    3.6600   -0.4907 C   0  0  0  0  0  0  0  0  0  0  0  0
   15.2530    4.2287    1.1379 Cl  0  0  0  0  0  0  0  0  0  0  0  0
   15.5642    2.3147   -0.7822 C   0  0  0  0  0  0  0  0  0  0  0  0
   15.3492   -0.6258   -1.5607 C   0  0  0  0  0  0  0  0  0  0  0  0
   14.9081   -4.5247   -1.5628 C   0  0  0  0  0  0  0  0  0  0  0  0
   16.2085   -5.3448   -1.4851 C   0  0  0  0  0  0  0  0  0  0  0  0
   15.3498   -6.6076   -1.3805 C   0  0  0  0  0  0  0  0  0  0  0  0
   14.2260   -5.7116   -0.8517 C   0  0  0  0  0  0  0  0  0  0  0  0
   13.3175   -2.7297   -0.8331 C   0  0  0  0  0  0  0  0  0  0  0  0
   12.4290   -2.7005   -1.6920 O   0  0  0  0  0  0  0  0  0  0  0  0
   11.0752   -1.9829    0.3236 H   0  0  0  0  0  0  0  0  0  0  0  0
   11.5248   -2.7252    1.8963 H   0  0  0  0  0  0  0  0  0  0  0  0
   11.9482   -1.0127    1.5577 H   0  0  0  0  0  0  0  0  0  0  0  0
   15.3807   -2.5665    2.9123 H   0  0  0  0  0  0  0  0  0  0  0  0
   13.7137   -2.1333    3.0952 H   0  0  0  0  0  0  0  0  0  0  0  0
   16.3001   -3.3783   -3.3486 H   0  0  0  0  0  0  0  0  0  0  0  0
   17.1815   -1.6018   -4.8348 H   0  0  0  0  0  0  0  0  0  0  0  0
   16.7599    0.7790   -4.3138 H   0  0  0  0  0  0  0  0  0  0  0  0
   15.3061    2.4238   -4.1735 H   0  0  0  0  0  0  0  0  0  0  0  0
   14.7460    4.7842   -3.6663 H   0  0  0  0  0  0  0  0  0  0  0  0
   14.6874    5.5746   -1.3088 H   0  0  0  0  0  0  0  0  0  0  0  0
   15.8051    1.6397    0.0258 H   0  0  0  0  0  0  0  0  0  0  0  0
   14.9060   -0.3574   -0.6131 H   0  0  0  0  0  0  0  0  0  0  0  0
   14.5720   -4.5170   -2.6102 H   0  0  0  0  0  0  0  0  0  0  0  0
   16.8349   -5.2929   -2.3878 H   0  0  0  0  0  0  0  0  0  0  0  0
   16.8255   -5.1382   -0.5982 H   0  0  0  0  0  0  0  0  0  0  0  0
   15.1335   -7.0972   -2.3415 H   0  0  0  0  0  0  0  0  0  0  0  0
   15.7177   -7.3554   -0.6626 H   0  0  0  0  0  0  0  0  0  0  0  0
   14.1876   -5.6263    0.2443 H   0  0  0  0  0  0  0  0  0  0  0  0
   13.2254   -5.9598   -1.2354 H   0  0  0  0  0  0  0  0  0  0  0  0
  1  2  1  0  0  0  0
  2  3  1  0  0  0  0
  2 24  1  0  0  0  0
  3  4  1  0  0  0  0
  3  5  2  0  0  0  0
  5  6  1  0  0  0  0
  6  7  1  0  0  0  0
  6 20  1  0  0  0  0
  6 24  1  0  0  0  0
  7  8  2  0  0  0  0
  7 19  1  0  0  0  0
  8  9  1  0  0  0  0
  9 10  2  0  0  0  0
 10 11  1  0  0  0  0
 11 12  1  0  0  0  0
 11 19  2  0  0  0  0
 12 13  2  0  0  0  0
 12 18  1  0  0  0  0
 13 14  1  0  0  0  0
 14 15  2  0  0  0  0
 15 16  1  0  0  0  0
 16 17  1  0  0  0  0
 16 18  2  0  0  0  0
 20 21  1  0  0  0  0
 20 23  1  0  0  0  0
 21 22  1  0  0  0  0
 22 23  1  0  0  0  0
 24 25  2  0  0  0  0
  1 26  1  0  0  0  0
  1 27  1  0  0  0  0
  1 28  1  0  0  0  0
  4 29  1  0  0  0  0
  4 30  1  0  0  0  0
  8 31  1  0  0  0  0
  9 32  1  0  0  0  0
 10 33  1  0  0  0  0
 13 34  1  0  0  0  0
 14 35  1  0  0  0  0
 15 36  1  0  0  0  0
 18 37  1  0  0  0  0
 19 38  1  0  0  0  0
 20 39  1  0  0  0  0
 21 40  1  0  0  0  0
 21 41  1  0  0  0  0
 22 42  1  0  0  0  0
 22 43  1  0  0  0  0
 23 44  1  0  0  0  0
 23 45  1  0  0  0  0
M  END
> <r_user_dG.exp>
-9.963

$$$$
CAT-13e
  -OEChem-05192314073D
 Structure written by MMmdl.
 45 48  0     1  0  0  0  0  0999 V2000
   11.8366   -2.0143    1.1169 C   0  0  0  0  0  0  0  0  0  0  0  0
   13.1188   -2.4437    0.5483 N   0  0  0  0  0  0  0  0  0  0  0  0
   14.2835   -2.6029    1.1994 C   0  0  0  0  0  0  0  0  0  0  0  0
   14.4756   -2.4186    2.5137 N   0  0  0  0  0  0  0  0  0  0  0  0
   15.2647   -2.9842    0.3717 N   0  0  0  0  0  0  0  0  0  0  0  0
   14.8037   -3.0771   -1.0176 C   0  0  1  0  0  0  0  0  0  0  0  0
   15.4609   -2.0005   -1.9043 C   0  0  0  0  0  0  0  0  0  0  0  0
   16.1507   -2.3399   -3.0923 C   0  0  0  0  0  0  0  0  0  0  0  0
   16.6412   -1.3353   -3.9384 C   0  0  0  0  0  0  0  0  0  0  0  0
   16.4312    0.0173   -3.6223 C   0  0  0  0  0  0  0  0  0  0  0  0
   15.8006    0.4013   -2.4216 C   0  0  0  0  0  0  0  0  0  0  0  0
   15.5617    1.8313   -2.1119 C   0  0  0  0  0  0  0  0  0  0  0  0
   15.2806    2.7552   -3.1459 C   0  0  0  0  0  0  0  0  0  0  0  0
   14.9680    4.0995   -2.8611 C   0  0  0  0  0  0  0  0  0  0  0  0
   14.9450    4.5495   -1.5306 C   0  0  0  0  0  0  0  0  0  0  0  0
   15.2585    3.6600   -0.4907 C   0  0  0  0  0  0  0  0  0  0  0  0
   15.2530    4.2287    1.1379 Cl  0  0  0  0  0  0  0  0  0  0  0  0
   15.5642    2.3147   -0.7822 C   0  0  0  0  0  0  0  0  0  0  0  0
   15.3492   -0.6258   -1.5607 C   0  0  0  0  0  0  0  0  0  0  0  0
   14.9081   -4.5247   -1.5628 C   0  0  0  0  0  0  0  0  0  0  0  0
   16.2085   -5.3448   -1.4851 C   0  0  0  0  0  0  0  0  0  0  0  0
   15.3498   -6.6076   -1.3805 C   0  0  0  0  0  0  0  0  0  0  0  0
   14.2260   -5.7116   -0.8517 C   0  0  0  0  0  0  0  0  0  0  0  0
   13.3175   -2.7297   -0.8331 C   0  0  0  0  0  0  0  0  0  0  0  0
   12.4290   -2.7005   -1.6920 O   0  0  0  0  0  0  0  0  0  0  0  0
   11.0752   -1.9829    0.3236 H   0  0  0  0  0  0  0  0  0  0  0  0
   11.5248   -2.7252    1.8963 H   0  0  0  0  0  0  0  0  0  0  0  0
   11.9482   -1.0127    1.5577 H   0  0  0  0  0  0  0  0  0  0  0  0
   15.4216   -2.5990    2.7829 H   0  0  0  0  0  0  0  0  0  0  0  0
   16.1998   -3.1819    0.6656 H   0  0  0  0  0  0  0  0  0  0  0  0
   16.3001   -3.3783   -3.3486 H   0  0  0  0  0  0  0  0  0  0  0  0
   17.1815   -1.6018   -4.8348 H   0  0  0  0  0  0  0  0  0  0  0  0
   16.7599    0.7790   -4.3138 H   0  0  0  0  0  0  0  0  0  0  0  0
   15.3061    2.4238   -4.1735 H   0  0  0  0  0  0  0  0  0  0  0  0
   14.7460    4.7842   -3.6663 H   0  0  0  0  0  0  0  0  0  0  0  0
   14.6874    5.5746   -1.3088 H   0  0  0  0  0  0  0  0  0  0  0  0
   15.8051    1.6397    0.0258 H   0  0  0  0  0  0  0  0  0  0  0  0
   14.9060   -0.3574   -0.6131 H   0  0  0  0  0  0  0  0  0  0  0  0
   14.5720   -4.5170   -2.6102 H   0  0  0  0  0  0  0  0  0  0  0  0
   16.8349   -5.2929   -2.3878 H   0  0  0  0  0  0  0  0  0  0  0  0
   16.8255   -5.1382   -0.5982 H   0  0  0  0  0  0  0  0  0  0  0  0
   15.1335   -7.0972   -2.3415 H   0  0  0  0  0  0  0  0  0  0  0  0
   15.7177   -7.3554   -0.6626 H   0  0  0  0  0  0  0  0  0  0  0  0
   14.1876   -5.6263    0.2443 H   0  0  0  0  0  0  0  0  0  0  0  0
   13.2254   -5.9598   -1.2354 H   0  0  0  0  0  0  0  0  0  0  0  0
  1  2  1  0  0  0  0
  2  3  1  0  0  0  0
  2 24  1  0  0  0  0
  3  4  2  0  0  0  0
  3  5  1  0  0  0  0
  5  6  1  0  0  0  0
  6  7  1  0  0  0  0
  6 20  1  0  0  0  0
  6 24  1  0  0  0  0
  7  8  2  0  0  0  0
  7 19  1  0  0  0  0
  8  9  1  0  0  0  0
  9 10  2  0  0  0  0
 10 11  1  0  0  0  0
 11 12  1  0  0  0  0
 11 19  2  0  0  0  0
 12 13  2  0  0  0  0
 12 18  1  0  0  0  0
 13 14  1  0  0  0  0
 14 15  2  0  0  0  0
 15 16  1  0  0  0  0
 16 17  1  0  0  0  0
 16 18  2  0  0  0  0
 20 21  1  0  0  0  0
 20 23  1  0  0  0  0
 21 22  1  0  0  0  0
 22 23  1  0  0  0  0
 24 25  2  0  0  0  0
  1 26  1  0  0  0  0
  1 27  1  0  0  0  0
  1 28  1  0  0  0  0
  4 29  1  0  0  0  0
  5 30  1  0  0  0  0
  8 31  1  0  0  0  0
  9 32  1  0  0  0  0
 10 33  1  0  0  0  0
 13 34  1  0  0  0  0
 14 35  1  0  0  0  0
 15 36  1  0  0  0  0
 18 37  1  0  0  0  0
 19 38  1  0  0  0  0
 20 39  1  0  0  0  0
 21 40  1  0  0  0  0
 21 41  1  0  0  0  0
 22 42  1  0  0  0  0
 22 43  1  0  0  0  0
 23 44  1  0  0  0  0
 23 45  1  0  0  0  0
M  END
> <r_user_dG.exp>
-9.963

$$$$
