CAT-17d
  -OEChem-05192314073D
 Structure written by MMmdl.
 41 44  0     1  0  0  0  0  0999 V2000
   11.7977   -2.3768    1.0760 C   0  0  0  0  0  0  0  0  0  0  0  0
   13.1459   -2.6842    0.5802 N   0  0  0  0  0  0  0  0  0  0  0  0
   14.2820   -2.6162    1.2890 C   0  0  0  0  0  0  0  0  0  0  0  0
   14.3880   -2.3333    2.5929 N   0  0  0  0  0  0  0  0  0  0  0  0
   15.3451   -2.8870    0.5330 N   0  0  0  0  0  0  0  0  0  0  0  0
   15.0000   -3.2006   -0.8473 C   0  0  1  0  0  0  0  0  0  0  0  0
   15.5362   -2.1321   -1.8176 C   0  0  0  0  0  0  0  0  0  0  0  0
   16.1095   -2.4879   -3.0612 C   0  0  0  0  0  0  0  0  0  0  0  0
   16.5405   -1.4924   -3.9515 C   0  0  0  0  0  0  0  0  0  0  0  0
   16.3829   -0.1350   -3.6257 C   0  0  0  0  0  0  0  0  0  0  0  0
   15.8368    0.2631   -2.3866 C   0  0  0  0  0  0  0  0  0  0  0  0
   15.6544    1.6970   -2.0542 C   0  0  0  0  0  0  0  0  0  0  0  0
   15.2127    2.1200   -0.7816 C   0  0  0  0  0  0  0  0  0  0  0  0
   15.1203    3.4931   -0.4934 C   0  0  0  0  0  0  0  0  0  0  0  0
   15.4606    4.4145   -1.4945 C   0  0  0  0  0  0  0  0  0  0  0  0
   15.8427    4.0423   -2.7276 N   0  0  0  0  0  0  0  0  0  0  0  0
   15.9326    2.7223   -2.9846 C   0  0  0  0  0  0  0  0  0  0  0  0
   15.4332   -0.7556   -1.4907 C   0  0  0  0  0  0  0  0  0  0  0  0
   15.5628   -4.6033   -1.1362 C   0  0  0  0  0  0  0  0  0  0  0  0
   14.9337   -5.8832   -0.6203 C   0  0  0  0  0  0  0  0  0  0  0  0
   14.9467   -5.5942   -2.1006 C   0  0  0  0  0  0  0  0  0  0  0  0
   13.4637   -3.0777   -0.7576 C   0  0  0  0  0  0  0  0  0  0  0  0
   12.6273   -3.2367   -1.6520 O   0  0  0  0  0  0  0  0  0  0  0  0
   11.0668   -2.5230    0.2671 H   0  0  0  0  0  0  0  0  0  0  0  0
   11.5544   -3.0453    1.9150 H   0  0  0  0  0  0  0  0  0  0  0  0
   11.7622   -1.3318    1.4176 H   0  0  0  0  0  0  0  0  0  0  0  0
   15.2872   -2.3204    3.0302 H   0  0  0  0  0  0  0  0  0  0  0  0
   13.5680   -2.1348    3.1297 H   0  0  0  0  0  0  0  0  0  0  0  0
   16.2158   -3.5294   -3.3263 H   0  0  0  0  0  0  0  0  0  0  0  0
   16.9951   -1.7709   -4.8907 H   0  0  0  0  0  0  0  0  0  0  0  0
   16.6856    0.6188   -4.3374 H   0  0  0  0  0  0  0  0  0  0  0  0
   14.9464    1.3904   -0.0311 H   0  0  0  0  0  0  0  0  0  0  0  0
   14.7940    3.8313    0.4790 H   0  0  0  0  0  0  0  0  0  0  0  0
   15.4135    5.4686   -1.2643 H   0  0  0  0  0  0  0  0  0  0  0  0
   16.2405    2.4265   -3.9766 H   0  0  0  0  0  0  0  0  0  0  0  0
   15.0339   -0.4759   -0.5270 H   0  0  0  0  0  0  0  0  0  0  0  0
   16.6625   -4.6301   -1.1318 H   0  0  0  0  0  0  0  0  0  0  0  0
   15.5693   -6.6819   -0.2104 H   0  0  0  0  0  0  0  0  0  0  0  0
   13.9875   -5.8441   -0.0607 H   0  0  0  0  0  0  0  0  0  0  0  0
   14.0095   -5.3452   -2.6199 H   0  0  0  0  0  0  0  0  0  0  0  0
   15.5914   -6.1831   -2.7696 H   0  0  0  0  0  0  0  0  0  0  0  0
  1  2  1  0  0  0  0
  2  3  1  0  0  0  0
  2 22  1  0  0  0  0
  3  4  1  0  0  0  0
  3  5  2  0  0  0  0
  5  6  1  0  0  0  0
  6  7  1  0  0  0  0
  6 19  1  0  0  0  0
  6 22  1  0  0  0  0
  7  8  2  0  0  0  0
  7 18  1  0  0  0  0
  8  9  1  0  0  0  0
  9 10  2  0  0  0  0
 10 11  1  0  0  0  0
 11 12  1  0  0  0  0
 11 18  2  0  0  0  0
 12 13  2  0  0  0  0
 12 17  1  0  0  0  0
 13 14  1  0  0  0  0
 14 15  2  0  0  0  0
 15 16  1  0  0  0  0
 16 17  2  0  0  0  0
 19 20  1  0  0  0  0
 19 21  1  0  0  0  0
 20 21  1  0  0  0  0
 22 23  2  0  0  0  0
  1 24  1  0  0  0  0
  1 25  1  0  0  0  0
  1 26  1  0  0  0  0
  4 27  1  0  0  0  0
  4 28  1  0  0  0  0
  8 29  1  0  0  0  0
  9 30  1  0  0  0  0
 10 31  1  0  0  0  0
 13 32  1  0  0  0  0
 14 33  1  0  0  0  0
 15 34  1  0  0  0  0
 17 35  1  0  0  0  0
 18 36  1  0  0  0  0
 19 37  1  0  0  0  0
 20 38  1  0  0  0  0
 20 39  1  0  0  0  0
 21 40  1  0  0  0  0
 21 41  1  0  0  0  0
M  END
> <r_user_dG.exp>
-9.423

$$$$
CAT-17d
  -OEChem-05192314073D
 Structure written by MMmdl.
 41 44  0     1  0  0  0  0  0999 V2000
   11.7977   -2.3768    1.0760 C   0  0  0  0  0  0  0  0  0  0  0  0
   13.1459   -2.6842    0.5802 N   0  0  0  0  0  0  0  0  0  0  0  0
   14.2820   -2.6162    1.2890 C   0  0  0  0  0  0  0  0  0  0  0  0
   14.3880   -2.3333    2.5929 N   0  0  0  0  0  0  0  0  0  0  0  0
   15.3451   -2.8870    0.5330 N   0  0  0  0  0  0  0  0  0  0  0  0
   15.0000   -3.2006   -0.8473 C   0  0  1  0  0  0  0  0  0  0  0  0
   15.5362   -2.1321   -1.8176 C   0  0  0  0  0  0  0  0  0  0  0  0
   16.1095   -2.4879   -3.0612 C   0  0  0  0  0  0  0  0  0  0  0  0
   16.5405   -1.4924   -3.9515 C   0  0  0  0  0  0  0  0  0  0  0  0
   16.3829   -0.1350   -3.6257 C   0  0  0  0  0  0  0  0  0  0  0  0
   15.8368    0.2631   -2.3866 C   0  0  0  0  0  0  0  0  0  0  0  0
   15.6544    1.6970   -2.0542 C   0  0  0  0  0  0  0  0  0  0  0  0
   15.2127    2.1200   -0.7816 C   0  0  0  0  0  0  0  0  0  0  0  0
   15.1203    3.4931   -0.4934 C   0  0  0  0  0  0  0  0  0  0  0  0
   15.4606    4.4145   -1.4945 C   0  0  0  0  0  0  0  0  0  0  0  0
   15.8427    4.0423   -2.7276 N   0  0  0  0  0  0  0  0  0  0  0  0
   15.9326    2.7223   -2.9846 C   0  0  0  0  0  0  0  0  0  0  0  0
   15.4332   -0.7556   -1.4907 C   0  0  0  0  0  0  0  0  0  0  0  0
   15.5628   -4.6033   -1.1362 C   0  0  0  0  0  0  0  0  0  0  0  0
   14.9337   -5.8832   -0.6203 C   0  0  0  0  0  0  0  0  0  0  0  0
   14.9467   -5.5942   -2.1006 C   0  0  0  0  0  0  0  0  0  0  0  0
   13.4637   -3.0777   -0.7576 C   0  0  0  0  0  0  0  0  0  0  0  0
   12.6273   -3.2367   -1.6520 O   0  0  0  0  0  0  0  0  0  0  0  0
   11.0668   -2.5230    0.2671 H   0  0  0  0  0  0  0  0  0  0  0  0
   11.5544   -3.0453    1.9150 H   0  0  0  0  0  0  0  0  0  0  0  0
   11.7622   -1.3318    1.4176 H   0  0  0  0  0  0  0  0  0  0  0  0
   15.3380   -2.3535    2.9046 H   0  0  0  0  0  0  0  0  0  0  0  0
   16.2838   -2.8761    0.8777 H   0  0  0  0  0  0  0  0  0  0  0  0
   16.2158   -3.5294   -3.3263 H   0  0  0  0  0  0  0  0  0  0  0  0
   16.9951   -1.7709   -4.8907 H   0  0  0  0  0  0  0  0  0  0  0  0
   16.6856    0.6188   -4.3374 H   0  0  0  0  0  0  0  0  0  0  0  0
   14.9464    1.3904   -0.0311 H   0  0  0  0  0  0  0  0  0  0  0  0
   14.7940    3.8313    0.4790 H   0  0  0  0  0  0  0  0  0  0  0  0
   15.4135    5.4686   -1.2643 H   0  0  0  0  0  0  0  0  0  0  0  0
   16.2405    2.4265   -3.9766 H   0  0  0  0  0  0  0  0  0  0  0  0
   15.0339   -0.4759   -0.5270 H   0  0  0  0  0  0  0  0  0  0  0  0
   16.6625   -4.6301   -1.1318 H   0  0  0  0  0  0  0  0  0  0  0  0
   15.5693   -6.6819   -0.2104 H   0  0  0  0  0  0  0  0  0  0  0  0
   13.9875   -5.8441   -0.0607 H   0  0  0  0  0  0  0  0  0  0  0  0
   14.0095   -5.3452   -2.6199 H   0  0  0  0  0  0  0  0  0  0  0  0
   15.5914   -6.1831   -2.7696 H   0  0  0  0  0  0  0  0  0  0  0  0
  1  2  1  0  0  0  0
  2  3  1  0  0  0  0
  2 22  1  0  0  0  0
  3  4  2  0  0  0  0
  3  5  1  0  0  0  0
  5  6  1  0  0  0  0
  6  7  1  0  0  0  0
  6 19  1  0  0  0  0
  6 22  1  0  0  0  0
  7  8  2  0  0  0  0
  7 18  1  0  0  0  0
  8  9  1  0  0  0  0
  9 10  2  0  0  0  0
 10 11  1  0  0  0  0
 11 12  1  0  0  0  0
 11 18  2  0  0  0  0
 12 13  2  0  0  0  0
 12 17  1  0  0  0  0
 13 14  1  0  0  0  0
 14 15  2  0  0  0  0
 15 16  1  0  0  0  0
 16 17  2  0  0  0  0
 19 20  1  0  0  0  0
 19 21  1  0  0  0  0
 20 21  1  0  0  0  0
 22 23  2  0  0  0  0
  1 24  1  0  0  0  0
  1 25  1  0  0  0  0
  1 26  1  0  0  0  0
  4 27  1  0  0  0  0
  5 28  1  0  0  0  0
  8 29  1  0  0  0  0
  9 30  1  0  0  0  0
 10 31  1  0  0  0  0
 13 32  1  0  0  0  0
 14 33  1  0  0  0  0
 15 34  1  0  0  0  0
 17 35  1  0  0  0  0
 18 36  1  0  0  0  0
 19 37  1  0  0  0  0
 20 38  1  0  0  0  0
 20 39  1  0  0  0  0
 21 40  1  0  0  0  0
 21 41  1  0  0  0  0
M  END
> <r_user_dG.exp>
-9.423

$$$$
