CAT-13m
  -OEChem-05192314073D
 Structure written by MMmdl.
 43 46  0     1  0  0  0  0  0999 V2000
   11.7748   -2.0496    1.1864 C   0  0  0  0  0  0  0  0  0  0  0  0
   13.0810   -2.4046    0.6207 N   0  0  0  0  0  0  0  0  0  0  0  0
   14.2515   -2.5116    1.2702 C   0  0  0  0  0  0  0  0  0  0  0  0
   14.4441   -2.3222    2.5814 N   0  0  0  0  0  0  0  0  0  0  0  0
   15.2422   -2.8670    0.4444 N   0  0  0  0  0  0  0  0  0  0  0  0
   14.7739   -3.0857   -0.9270 C   0  0  2  0  0  0  0  0  0  0  0  0
   14.8997   -4.5948   -1.2714 C   0  0  0  0  0  0  0  0  0  0  0  0
   16.0472   -5.1640   -1.8459 C   0  0  0  0  0  0  0  0  0  0  0  0
   16.1698   -6.4826   -2.0817 N   0  0  0  0  0  0  0  0  0  0  0  0
   15.1536   -7.2493   -1.7242 C   0  0  0  0  0  0  0  0  0  0  0  0
   14.0437   -6.8476   -1.1288 N   0  0  0  0  0  0  0  0  0  0  0  0
   13.9102   -5.5340   -0.9211 C   0  0  0  0  0  0  0  0  0  0  0  0
   15.3786   -2.0452   -1.9004 C   0  0  0  0  0  0  0  0  0  0  0  0
   15.8325   -2.3836   -3.1970 C   0  0  0  0  0  0  0  0  0  0  0  0
   16.3422   -1.3953   -4.0510 C   0  0  0  0  0  0  0  0  0  0  0  0
   16.3043   -0.0420   -3.6752 C   0  0  0  0  0  0  0  0  0  0  0  0
   15.7978    0.3539   -2.4198 C   0  0  0  0  0  0  0  0  0  0  0  0
   15.5968    1.7919   -2.0984 C   0  0  0  0  0  0  0  0  0  0  0  0
   15.2949    2.7191   -3.1262 C   0  0  0  0  0  0  0  0  0  0  0  0
   14.9736    4.0603   -2.8365 C   0  0  0  0  0  0  0  0  0  0  0  0
   14.9642    4.5099   -1.5062 C   0  0  0  0  0  0  0  0  0  0  0  0
   15.3030    3.6222   -0.4730 C   0  0  0  0  0  0  0  0  0  0  0  0
   15.3087    4.1915    1.1559 Cl  0  0  0  0  0  0  0  0  0  0  0  0
   15.6158    2.2792   -0.7695 C   0  0  0  0  0  0  0  0  0  0  0  0
   15.4019   -0.6710   -1.5264 C   0  0  0  0  0  0  0  0  0  0  0  0
   13.2877   -2.7178   -0.7536 C   0  0  0  0  0  0  0  0  0  0  0  0
   12.3957   -2.7761   -1.6055 O   0  0  0  0  0  0  0  0  0  0  0  0
   11.0171   -2.0492    0.3889 H   0  0  0  0  0  0  0  0  0  0  0  0
   11.4966   -2.7848    1.9559 H   0  0  0  0  0  0  0  0  0  0  0  0
   11.8312   -1.0486    1.6390 H   0  0  0  0  0  0  0  0  0  0  0  0
   15.3545   -2.4462    2.9761 H   0  0  0  0  0  0  0  0  0  0  0  0
   13.6776   -2.0567    3.1662 H   0  0  0  0  0  0  0  0  0  0  0  0
   16.8683   -4.5141   -2.1104 H   0  0  0  0  0  0  0  0  0  0  0  0
   15.2384   -8.3043   -1.9391 H   0  0  0  0  0  0  0  0  0  0  0  0
   13.0003   -5.1757   -0.4628 H   0  0  0  0  0  0  0  0  0  0  0  0
   15.7861   -3.4096   -3.5310 H   0  0  0  0  0  0  0  0  0  0  0  0
   16.7666   -1.6760   -5.0036 H   0  0  0  0  0  0  0  0  0  0  0  0
   16.6697    0.7088   -4.3601 H   0  0  0  0  0  0  0  0  0  0  0  0
   15.3114    2.3906   -4.1549 H   0  0  0  0  0  0  0  0  0  0  0  0
   14.7344    4.7430   -3.6384 H   0  0  0  0  0  0  0  0  0  0  0  0
   14.6981    5.5318   -1.2796 H   0  0  0  0  0  0  0  0  0  0  0  0
   15.8756    1.6076    0.0354 H   0  0  0  0  0  0  0  0  0  0  0  0
   15.1064   -0.4004   -0.5235 H   0  0  0  0  0  0  0  0  0  0  0  0
  1  2  1  0  0  0  0
  2  3  1  0  0  0  0
  2 26  1  0  0  0  0
  3  4  1  0  0  0  0
  3  5  2  0  0  0  0
  5  6  1  0  0  0  0
  6  7  1  0  0  0  0
  6 13  1  0  0  0  0
  6 26  1  0  0  0  0
  7  8  2  0  0  0  0
  7 12  1  0  0  0  0
  8  9  1  0  0  0  0
  9 10  2  0  0  0  0
 10 11  1  0  0  0  0
 11 12  2  0  0  0  0
 13 14  2  0  0  0  0
 13 25  1  0  0  0  0
 14 15  1  0  0  0  0
 15 16  2  0  0  0  0
 16 17  1  0  0  0  0
 17 18  1  0  0  0  0
 17 25  2  0  0  0  0
 18 19  2  0  0  0  0
 18 24  1  0  0  0  0
 19 20  1  0  0  0  0
 20 21  2  0  0  0  0
 21 22  1  0  0  0  0
 22 23  1  0  0  0  0
 22 24  2  0  0  0  0
 26 27  2  0  0  0  0
  1 28  1  0  0  0  0
  1 29  1  0  0  0  0
  1 30  1  0  0  0  0
  4 31  1  0  0  0  0
  4 32  1  0  0  0  0
  8 33  1  0  0  0  0
 10 34  1  0  0  0  0
 12 35  1  0  0  0  0
 14 36  1  0  0  0  0
 15 37  1  0  0  0  0
 16 38  1  0  0  0  0
 19 39  1  0  0  0  0
 20 40  1  0  0  0  0
 21 41  1  0  0  0  0
 24 42  1  0  0  0  0
 25 43  1  0  0  0  0
M  END
> <r_user_dG.exp>
-8.763

$$$$
CAT-13m
  -OEChem-05192314073D
 Structure written by MMmdl.
 43 46  0     1  0  0  0  0  0999 V2000
   11.7748   -2.0496    1.1864 C   0  0  0  0  0  0  0  0  0  0  0  0
   13.0810   -2.4046    0.6207 N   0  0  0  0  0  0  0  0  0  0  0  0
   14.2515   -2.5116    1.2702 C   0  0  0  0  0  0  0  0  0  0  0  0
   14.4441   -2.3222    2.5814 N   0  0  0  0  0  0  0  0  0  0  0  0
   15.2422   -2.8670    0.4444 N   0  0  0  0  0  0  0  0  0  0  0  0
   14.7739   -3.0857   -0.9270 C   0  0  2  0  0  0  0  0  0  0  0  0
   14.8997   -4.5948   -1.2714 C   0  0  0  0  0  0  0  0  0  0  0  0
   16.0472   -5.1640   -1.8459 C   0  0  0  0  0  0  0  0  0  0  0  0
   16.1698   -6.4826   -2.0817 N   0  0  0  0  0  0  0  0  0  0  0  0
   15.1536   -7.2493   -1.7242 C   0  0  0  0  0  0  0  0  0  0  0  0
   14.0437   -6.8476   -1.1288 N   0  0  0  0  0  0  0  0  0  0  0  0
   13.9102   -5.5340   -0.9211 C   0  0  0  0  0  0  0  0  0  0  0  0
   15.3786   -2.0452   -1.9004 C   0  0  0  0  0  0  0  0  0  0  0  0
   15.8325   -2.3836   -3.1970 C   0  0  0  0  0  0  0  0  0  0  0  0
   16.3422   -1.3953   -4.0510 C   0  0  0  0  0  0  0  0  0  0  0  0
   16.3043   -0.0420   -3.6752 C   0  0  0  0  0  0  0  0  0  0  0  0
   15.7978    0.3539   -2.4198 C   0  0  0  0  0  0  0  0  0  0  0  0
   15.5968    1.7919   -2.0984 C   0  0  0  0  0  0  0  0  0  0  0  0
   15.2949    2.7191   -3.1262 C   0  0  0  0  0  0  0  0  0  0  0  0
   14.9736    4.0603   -2.8365 C   0  0  0  0  0  0  0  0  0  0  0  0
   14.9642    4.5099   -1.5062 C   0  0  0  0  0  0  0  0  0  0  0  0
   15.3030    3.6222   -0.4730 C   0  0  0  0  0  0  0  0  0  0  0  0
   15.3087    4.1915    1.1559 Cl  0  0  0  0  0  0  0  0  0  0  0  0
   15.6158    2.2792   -0.7695 C   0  0  0  0  0  0  0  0  0  0  0  0
   15.4019   -0.6710   -1.5264 C   0  0  0  0  0  0  0  0  0  0  0  0
   13.2877   -2.7178   -0.7536 C   0  0  0  0  0  0  0  0  0  0  0  0
   12.3957   -2.7761   -1.6055 O   0  0  0  0  0  0  0  0  0  0  0  0
   11.0171   -2.0492    0.3889 H   0  0  0  0  0  0  0  0  0  0  0  0
   11.4966   -2.7848    1.9559 H   0  0  0  0  0  0  0  0  0  0  0  0
   11.8312   -1.0486    1.6390 H   0  0  0  0  0  0  0  0  0  0  0  0
   15.3957   -2.4777    2.8466 H   0  0  0  0  0  0  0  0  0  0  0  0
   16.1947   -2.9716    0.7305 H   0  0  0  0  0  0  0  0  0  0  0  0
   16.8683   -4.5141   -2.1104 H   0  0  0  0  0  0  0  0  0  0  0  0
   15.2384   -8.3043   -1.9391 H   0  0  0  0  0  0  0  0  0  0  0  0
   13.0003   -5.1757   -0.4628 H   0  0  0  0  0  0  0  0  0  0  0  0
   15.7861   -3.4096   -3.5310 H   0  0  0  0  0  0  0  0  0  0  0  0
   16.7666   -1.6760   -5.0036 H   0  0  0  0  0  0  0  0  0  0  0  0
   16.6697    0.7088   -4.3601 H   0  0  0  0  0  0  0  0  0  0  0  0
   15.3114    2.3906   -4.1549 H   0  0  0  0  0  0  0  0  0  0  0  0
   14.7344    4.7430   -3.6384 H   0  0  0  0  0  0  0  0  0  0  0  0
   14.6981    5.5318   -1.2796 H   0  0  0  0  0  0  0  0  0  0  0  0
   15.8756    1.6076    0.0354 H   0  0  0  0  0  0  0  0  0  0  0  0
   15.1064   -0.4004   -0.5235 H   0  0  0  0  0  0  0  0  0  0  0  0
  1  2  1  0  0  0  0
  2  3  1  0  0  0  0
  2 26  1  0  0  0  0
  3  4  2  0  0  0  0
  3  5  1  0  0  0  0
  5  6  1  0  0  0  0
  6  7  1  0  0  0  0
  6 13  1  0  0  0  0
  6 26  1  0  0  0  0
  7  8  2  0  0  0  0
  7 12  1  0  0  0  0
  8  9  1  0  0  0  0
  9 10  2  0  0  0  0
 10 11  1  0  0  0  0
 11 12  2  0  0  0  0
 13 14  2  0  0  0  0
 13 25  1  0  0  0  0
 14 15  1  0  0  0  0
 15 16  2  0  0  0  0
 16 17  1  0  0  0  0
 17 18  1  0  0  0  0
 17 25  2  0  0  0  0
 18 19  2  0  0  0  0
 18 24  1  0  0  0  0
 19 20  1  0  0  0  0
 20 21  2  0  0  0  0
 21 22  1  0  0  0  0
 22 23  1  0  0  0  0
 22 24  2  0  0  0  0
 26 27  2  0  0  0  0
  1 28  1  0  0  0  0
  1 29  1  0  0  0  0
  1 30  1  0  0  0  0
  4 31  1  0  0  0  0
  5 32  1  0  0  0  0
  8 33  1  0  0  0  0
 10 34  1  0  0  0  0
 12 35  1  0  0  0  0
 14 36  1  0  0  0  0
 15 37  1  0  0  0  0
 16 38  1  0  0  0  0
 19 39  1  0  0  0  0
 20 40  1  0  0  0  0
 21 41  1  0  0  0  0
 24 42  1  0  0  0  0
 25 43  1  0  0  0  0
M  END
> <r_user_dG.exp>
-8.763

$$$$
