CAT-17c
  -OEChem-05192314073D
 Structure written by MMmdl.
 43 46  0     1  0  0  0  0  0999 V2000
   11.7853   -2.3455    1.0634 C   0  0  0  0  0  0  0  0  0  0  0  0
   13.1441   -2.6062    0.5704 N   0  0  0  0  0  0  0  0  0  0  0  0
   14.2744   -2.5302    1.2878 C   0  0  0  0  0  0  0  0  0  0  0  0
   14.3686   -2.2901    2.6004 N   0  0  0  0  0  0  0  0  0  0  0  0
   15.3478   -2.7494    0.5312 N   0  0  0  0  0  0  0  0  0  0  0  0
   15.0177   -3.0661   -0.8502 C   0  0  1  0  0  0  0  0  0  0  0  0
   15.5551   -1.9961   -1.8186 C   0  0  0  0  0  0  0  0  0  0  0  0
   16.2098   -2.3561   -3.0209 C   0  0  0  0  0  0  0  0  0  0  0  0
   16.6298   -1.3669   -3.9225 C   0  0  0  0  0  0  0  0  0  0  0  0
   16.3789   -0.0114   -3.6497 C   0  0  0  0  0  0  0  0  0  0  0  0
   15.7538    0.3922   -2.4512 C   0  0  0  0  0  0  0  0  0  0  0  0
   15.4596    1.8218   -2.1925 C   0  0  0  0  0  0  0  0  0  0  0  0
   15.1111    2.6867   -3.2564 C   0  0  0  0  0  0  0  0  0  0  0  0
   14.7531    4.0293   -3.0229 C   0  0  0  0  0  0  0  0  0  0  0  0
   14.7533    4.5399   -1.7148 C   0  0  0  0  0  0  0  0  0  0  0  0
   15.1249    3.7078   -0.6437 C   0  0  0  0  0  0  0  0  0  0  0  0
   15.1349    4.2481    0.7044 C   0  0  0  0  0  0  0  0  0  0  0  0
   15.1438    4.6818    1.7758 N   0  0  0  0  0  0  0  0  0  0  0  0
   15.4757    2.3610   -0.8842 C   0  0  0  0  0  0  0  0  0  0  0  0
   15.3690   -0.6167   -1.5375 C   0  0  0  0  0  0  0  0  0  0  0  0
   15.5917   -4.4671   -1.1260 C   0  0  0  0  0  0  0  0  0  0  0  0
   14.9497   -5.7532   -0.6412 C   0  0  0  0  0  0  0  0  0  0  0  0
   15.0113   -5.4514   -2.1181 C   0  0  0  0  0  0  0  0  0  0  0  0
   13.4793   -2.9638   -0.7730 C   0  0  0  0  0  0  0  0  0  0  0  0
   12.6533   -3.1192   -1.6780 O   0  0  0  0  0  0  0  0  0  0  0  0
   11.0642   -2.4877    0.2450 H   0  0  0  0  0  0  0  0  0  0  0  0
   11.5525   -3.0422    1.8822 H   0  0  0  0  0  0  0  0  0  0  0  0
   11.7215   -1.3113    1.4326 H   0  0  0  0  0  0  0  0  0  0  0  0
   15.2655   -2.2713    3.0422 H   0  0  0  0  0  0  0  0  0  0  0  0
   13.5421   -2.1294    3.1399 H   0  0  0  0  0  0  0  0  0  0  0  0
   16.3868   -3.3976   -3.2452 H   0  0  0  0  0  0  0  0  0  0  0  0
   17.1470   -1.6476   -4.8281 H   0  0  0  0  0  0  0  0  0  0  0  0
   16.6705    0.7365   -4.3722 H   0  0  0  0  0  0  0  0  0  0  0  0
   15.1196    2.3101   -4.2686 H   0  0  0  0  0  0  0  0  0  0  0  0
   14.4783    4.6662   -3.8507 H   0  0  0  0  0  0  0  0  0  0  0  0
   14.4697    5.5659   -1.5323 H   0  0  0  0  0  0  0  0  0  0  0  0
   15.7614    1.7312   -0.0546 H   0  0  0  0  0  0  0  0  0  0  0  0
   14.9203   -0.3293   -0.5981 H   0  0  0  0  0  0  0  0  0  0  0  0
   16.6907   -4.4917   -1.0852 H   0  0  0  0  0  0  0  0  0  0  0  0
   15.5738   -6.5535   -0.2169 H   0  0  0  0  0  0  0  0  0  0  0  0
   13.9853   -5.7214   -0.1131 H   0  0  0  0  0  0  0  0  0  0  0  0
   14.0912   -5.2007   -2.6663 H   0  0  0  0  0  0  0  0  0  0  0  0
   15.6797   -6.0328   -2.7701 H   0  0  0  0  0  0  0  0  0  0  0  0
  1  2  1  0  0  0  0
  2  3  1  0  0  0  0
  2 24  1  0  0  0  0
  3  4  1  0  0  0  0
  3  5  2  0  0  0  0
  5  6  1  0  0  0  0
  6  7  1  0  0  0  0
  6 21  1  0  0  0  0
  6 24  1  0  0  0  0
  7  8  2  0  0  0  0
  7 20  1  0  0  0  0
  8  9  1  0  0  0  0
  9 10  2  0  0  0  0
 10 11  1  0  0  0  0
 11 12  1  0  0  0  0
 11 20  2  0  0  0  0
 12 13  2  0  0  0  0
 12 19  1  0  0  0  0
 13 14  1  0  0  0  0
 14 15  2  0  0  0  0
 15 16  1  0  0  0  0
 16 17  1  0  0  0  0
 16 19  2  0  0  0  0
 17 18  3  0  0  0  0
 21 22  1  0  0  0  0
 21 23  1  0  0  0  0
 22 23  1  0  0  0  0
 24 25  2  0  0  0  0
  1 26  1  0  0  0  0
  1 27  1  0  0  0  0
  1 28  1  0  0  0  0
  4 29  1  0  0  0  0
  4 30  1  0  0  0  0
  8 31  1  0  0  0  0
  9 32  1  0  0  0  0
 10 33  1  0  0  0  0
 13 34  1  0  0  0  0
 14 35  1  0  0  0  0
 15 36  1  0  0  0  0
 19 37  1  0  0  0  0
 20 38  1  0  0  0  0
 21 39  1  0  0  0  0
 22 40  1  0  0  0  0
 22 41  1  0  0  0  0
 23 42  1  0  0  0  0
 23 43  1  0  0  0  0
M  END
> <r_user_dG.exp>
-9.863

$$$$
CAT-17c
  -OEChem-05192314073D
 Structure written by MMmdl.
 43 46  0     1  0  0  0  0  0999 V2000
   11.7853   -2.3455    1.0634 C   0  0  0  0  0  0  0  0  0  0  0  0
   13.1441   -2.6062    0.5704 N   0  0  0  0  0  0  0  0  0  0  0  0
   14.2744   -2.5302    1.2878 C   0  0  0  0  0  0  0  0  0  0  0  0
   14.3686   -2.2901    2.6004 N   0  0  0  0  0  0  0  0  0  0  0  0
   15.3478   -2.7494    0.5312 N   0  0  0  0  0  0  0  0  0  0  0  0
   15.0177   -3.0661   -0.8502 C   0  0  1  0  0  0  0  0  0  0  0  0
   15.5551   -1.9961   -1.8186 C   0  0  0  0  0  0  0  0  0  0  0  0
   16.2098   -2.3561   -3.0209 C   0  0  0  0  0  0  0  0  0  0  0  0
   16.6298   -1.3669   -3.9225 C   0  0  0  0  0  0  0  0  0  0  0  0
   16.3789   -0.0114   -3.6497 C   0  0  0  0  0  0  0  0  0  0  0  0
   15.7538    0.3922   -2.4512 C   0  0  0  0  0  0  0  0  0  0  0  0
   15.4596    1.8218   -2.1925 C   0  0  0  0  0  0  0  0  0  0  0  0
   15.1111    2.6867   -3.2564 C   0  0  0  0  0  0  0  0  0  0  0  0
   14.7531    4.0293   -3.0229 C   0  0  0  0  0  0  0  0  0  0  0  0
   14.7533    4.5399   -1.7148 C   0  0  0  0  0  0  0  0  0  0  0  0
   15.1249    3.7078   -0.6437 C   0  0  0  0  0  0  0  0  0  0  0  0
   15.1349    4.2481    0.7044 C   0  0  0  0  0  0  0  0  0  0  0  0
   15.1438    4.6818    1.7758 N   0  0  0  0  0  0  0  0  0  0  0  0
   15.4757    2.3610   -0.8842 C   0  0  0  0  0  0  0  0  0  0  0  0
   15.3690   -0.6167   -1.5375 C   0  0  0  0  0  0  0  0  0  0  0  0
   15.5917   -4.4671   -1.1260 C   0  0  0  0  0  0  0  0  0  0  0  0
   14.9497   -5.7532   -0.6412 C   0  0  0  0  0  0  0  0  0  0  0  0
   15.0113   -5.4514   -2.1181 C   0  0  0  0  0  0  0  0  0  0  0  0
   13.4793   -2.9638   -0.7730 C   0  0  0  0  0  0  0  0  0  0  0  0
   12.6533   -3.1192   -1.6780 O   0  0  0  0  0  0  0  0  0  0  0  0
   11.0642   -2.4877    0.2450 H   0  0  0  0  0  0  0  0  0  0  0  0
   11.5525   -3.0422    1.8822 H   0  0  0  0  0  0  0  0  0  0  0  0
   11.7215   -1.3113    1.4326 H   0  0  0  0  0  0  0  0  0  0  0  0
   15.3176   -2.2988    2.9157 H   0  0  0  0  0  0  0  0  0  0  0  0
   16.2849   -2.7013    0.8769 H   0  0  0  0  0  0  0  0  0  0  0  0
   16.3868   -3.3976   -3.2452 H   0  0  0  0  0  0  0  0  0  0  0  0
   17.1470   -1.6476   -4.8281 H   0  0  0  0  0  0  0  0  0  0  0  0
   16.6705    0.7365   -4.3722 H   0  0  0  0  0  0  0  0  0  0  0  0
   15.1196    2.3101   -4.2686 H   0  0  0  0  0  0  0  0  0  0  0  0
   14.4783    4.6662   -3.8507 H   0  0  0  0  0  0  0  0  0  0  0  0
   14.4697    5.5659   -1.5323 H   0  0  0  0  0  0  0  0  0  0  0  0
   15.7614    1.7312   -0.0546 H   0  0  0  0  0  0  0  0  0  0  0  0
   14.9203   -0.3293   -0.5981 H   0  0  0  0  0  0  0  0  0  0  0  0
   16.6907   -4.4917   -1.0852 H   0  0  0  0  0  0  0  0  0  0  0  0
   15.5738   -6.5535   -0.2169 H   0  0  0  0  0  0  0  0  0  0  0  0
   13.9853   -5.7214   -0.1131 H   0  0  0  0  0  0  0  0  0  0  0  0
   14.0912   -5.2007   -2.6663 H   0  0  0  0  0  0  0  0  0  0  0  0
   15.6797   -6.0328   -2.7701 H   0  0  0  0  0  0  0  0  0  0  0  0
  1  2  1  0  0  0  0
  2  3  1  0  0  0  0
  2 24  1  0  0  0  0
  3  4  2  0  0  0  0
  3  5  1  0  0  0  0
  5  6  1  0  0  0  0
  6  7  1  0  0  0  0
  6 21  1  0  0  0  0
  6 24  1  0  0  0  0
  7  8  2  0  0  0  0
  7 20  1  0  0  0  0
  8  9  1  0  0  0  0
  9 10  2  0  0  0  0
 10 11  1  0  0  0  0
 11 12  1  0  0  0  0
 11 20  2  0  0  0  0
 12 13  2  0  0  0  0
 12 19  1  0  0  0  0
 13 14  1  0  0  0  0
 14 15  2  0  0  0  0
 15 16  1  0  0  0  0
 16 17  1  0  0  0  0
 16 19  2  0  0  0  0
 17 18  3  0  0  0  0
 21 22  1  0  0  0  0
 21 23  1  0  0  0  0
 22 23  1  0  0  0  0
 24 25  2  0  0  0  0
  1 26  1  0  0  0  0
  1 27  1  0  0  0  0
  1 28  1  0  0  0  0
  4 29  1  0  0  0  0
  5 30  1  0  0  0  0
  8 31  1  0  0  0  0
  9 32  1  0  0  0  0
 10 33  1  0  0  0  0
 13 34  1  0  0  0  0
 14 35  1  0  0  0  0
 15 36  1  0  0  0  0
 19 37  1  0  0  0  0
 20 38  1  0  0  0  0
 21 39  1  0  0  0  0
 22 40  1  0  0  0  0
 22 41  1  0  0  0  0
 23 42  1  0  0  0  0
 23 43  1  0  0  0  0
M  END
> <r_user_dG.exp>
-9.863

$$$$
