28
  -OEChem-05192314073D
 Structure written by MMmdl.
 42 44  0     0  0  0  0  0  0999 V2000
    3.9028  -50.1313    6.9252 O   0  0  0  0  0  0  0  0  0  0  0  0
    3.1380  -49.1612    6.7262 C   0  0  0  0  0  0  0  0  0  0  0  0
    3.5633  -47.9815    6.7264 O   0  0  0  0  0  0  0  0  0  0  0  0
    1.6985  -49.4262    6.5058 C   0  0  0  0  0  0  0  0  0  0  0  0
   -0.0745  -50.8648    6.3721 C   0  0  0  0  0  0  0  0  0  0  0  0
   -0.9478  -51.9675    6.3522 C   0  0  0  0  0  0  0  0  0  0  0  0
   -2.3225  -51.7622    6.1429 C   0  0  0  0  0  0  0  0  0  0  0  0
   -2.8137  -50.4555    5.9479 C   0  0  0  0  0  0  0  0  0  0  0  0
   -1.9309  -49.3561    5.9665 C   0  0  0  0  0  0  0  0  0  0  0  0
   -0.5423  -49.5315    6.1792 C   0  0  0  0  0  0  0  0  0  0  0  0
    0.5894  -48.6424    6.2612 C   0  0  0  0  0  0  0  0  0  0  0  0
    0.5190  -47.1480    6.1437 C   0  0  0  0  0  0  0  0  0  0  0  0
    0.1328  -46.5094    7.4893 C   0  0  0  0  0  0  0  0  0  0  0  0
   -0.4950  -45.1179    7.3420 C   0  0  0  0  0  0  0  0  0  0  0  0
   -1.7518  -45.1827    6.6677 O   0  0  0  0  0  0  0  0  0  0  0  0
   -2.9007  -45.4447    7.3863 C   0  0  0  0  0  0  0  0  0  0  0  0
   -4.1347  -45.3236    6.7054 C   0  0  0  0  0  0  0  0  0  0  0  0
   -5.3517  -45.5713    7.3725 C   0  0  0  0  0  0  0  0  0  0  0  0
   -5.3529  -45.9452    8.7282 C   0  0  0  0  0  0  0  0  0  0  0  0
   -4.1342  -46.0720    9.4200 C   0  0  0  0  0  0  0  0  0  0  0  0
   -2.9148  -45.8260    8.7539 C   0  0  0  0  0  0  0  0  0  0  0  0
    1.2866  -50.7509    6.5622 N   0  0  0  0  0  0  0  0  0  0  0  0
   -4.1627  -44.9217    5.2458 C   0  0  0  0  0  0  0  0  0  0  0  0
    4.4985  -47.9816    6.8935 H   0  0  0  0  0  0  0  0  0  0  0  0
   -0.5640  -52.9666    6.4970 H   0  0  0  0  0  0  0  0  0  0  0  0
   -3.0002  -52.6030    6.1315 H   0  0  0  0  0  0  0  0  0  0  0  0
   -3.8692  -50.2959    5.7838 H   0  0  0  0  0  0  0  0  0  0  0  0
   -2.3218  -48.3607    5.8155 H   0  0  0  0  0  0  0  0  0  0  0  0
    1.5017  -46.7645    5.8318 H   0  0  0  0  0  0  0  0  0  0  0  0
   -0.2352  -46.8812    5.3887 H   0  0  0  0  0  0  0  0  0  0  0  0
   -0.5905  -47.1673    7.9932 H   0  0  0  0  0  0  0  0  0  0  0  0
    1.0390  -46.4201    8.1063 H   0  0  0  0  0  0  0  0  0  0  0  0
   -0.6472  -44.6861    8.3422 H   0  0  0  0  0  0  0  0  0  0  0  0
    0.1878  -44.4763    6.7657 H   0  0  0  0  0  0  0  0  0  0  0  0
   -6.2865  -45.4736    6.8405 H   0  0  0  0  0  0  0  0  0  0  0  0
   -6.2866  -46.1345    9.2369 H   0  0  0  0  0  0  0  0  0  0  0  0
   -4.1321  -46.3578   10.4615 H   0  0  0  0  0  0  0  0  0  0  0  0
   -1.9828  -45.9288    9.2898 H   0  0  0  0  0  0  0  0  0  0  0  0
    1.8997  -51.5249    6.7207 H   0  0  0  0  0  0  0  0  0  0  0  0
   -4.1164  -45.8224    4.6160 H   0  0  0  0  0  0  0  0  0  0  0  0
   -5.0928  -44.3739    5.0342 H   0  0  0  0  0  0  0  0  0  0  0  0
   -3.2992  -44.2764    5.0267 H   0  0  0  0  0  0  0  0  0  0  0  0
  1  2  2  0  0  0  0
  2  3  1  0  0  0  0
  2  4  1  0  0  0  0
  4 11  2  0  0  0  0
  4 22  1  0  0  0  0
  5  6  2  0  0  0  0
  5 10  1  0  0  0  0
  5 22  1  0  0  0  0
  6  7  1  0  0  0  0
  7  8  2  0  0  0  0
  8  9  1  0  0  0  0
  9 10  2  0  0  0  0
 10 11  1  0  0  0  0
 11 12  1  0  0  0  0
 12 13  1  0  0  0  0
 13 14  1  0  0  0  0
 14 15  1  0  0  0  0
 15 16  1  0  0  0  0
 16 17  2  0  0  0  0
 16 21  1  0  0  0  0
 17 18  1  0  0  0  0
 17 23  1  0  0  0  0
 18 19  2  0  0  0  0
 19 20  1  0  0  0  0
 20 21  2  0  0  0  0
  3 24  1  0  0  0  0
  6 25  1  0  0  0  0
  7 26  1  0  0  0  0
  8 27  1  0  0  0  0
  9 28  1  0  0  0  0
 12 29  1  0  0  0  0
 12 30  1  0  0  0  0
 13 31  1  0  0  0  0
 13 32  1  0  0  0  0
 14 33  1  0  0  0  0
 14 34  1  0  0  0  0
 18 35  1  0  0  0  0
 19 36  1  0  0  0  0
 20 37  1  0  0  0  0
 21 38  1  0  0  0  0
 22 39  1  0  0  0  0
 23 40  1  0  0  0  0
 23 41  1  0  0  0  0
 23 42  1  0  0  0  0
M  END
> <r_user_dG.exp>
-6.62149034253618

$$$$
28
  -OEChem-05192314073D
 Structure written by MMmdl.
 42 44  0     1  0  0  0  0  0999 V2000
    3.9028  -50.1313    6.9252 O   0  0  0  0  0  0  0  0  0  0  0  0
    3.1380  -49.1612    6.7262 C   0  0  0  0  0  0  0  0  0  0  0  0
    3.5633  -47.9815    6.7264 O   0  0  0  0  0  0  0  0  0  0  0  0
    1.6985  -49.4262    6.5058 C   0  0  0  0  0  0  0  0  0  0  0  0
   -0.0745  -50.8648    6.3721 C   0  0  0  0  0  0  0  0  0  0  0  0
   -0.9478  -51.9675    6.3522 C   0  0  0  0  0  0  0  0  0  0  0  0
   -2.3225  -51.7622    6.1429 C   0  0  0  0  0  0  0  0  0  0  0  0
   -2.8137  -50.4555    5.9479 C   0  0  0  0  0  0  0  0  0  0  0  0
   -1.9309  -49.3561    5.9665 C   0  0  0  0  0  0  0  0  0  0  0  0
   -0.5423  -49.5315    6.1792 C   0  0  0  0  0  0  0  0  0  0  0  0
    0.5894  -48.6424    6.2612 C   0  0  3  0  0  0  0  0  0  0  0  0
    0.5190  -47.1480    6.1437 C   0  0  0  0  0  0  0  0  0  0  0  0
    0.1328  -46.5094    7.4893 C   0  0  0  0  0  0  0  0  0  0  0  0
   -0.4950  -45.1179    7.3420 C   0  0  0  0  0  0  0  0  0  0  0  0
   -1.7518  -45.1827    6.6677 O   0  0  0  0  0  0  0  0  0  0  0  0
   -2.9007  -45.4447    7.3863 C   0  0  0  0  0  0  0  0  0  0  0  0
   -4.1347  -45.3236    6.7054 C   0  0  0  0  0  0  0  0  0  0  0  0
   -5.3517  -45.5713    7.3725 C   0  0  0  0  0  0  0  0  0  0  0  0
   -5.3529  -45.9452    8.7282 C   0  0  0  0  0  0  0  0  0  0  0  0
   -4.1342  -46.0720    9.4200 C   0  0  0  0  0  0  0  0  0  0  0  0
   -2.9148  -45.8260    8.7539 C   0  0  0  0  0  0  0  0  0  0  0  0
    1.2866  -50.7509    6.5622 N   0  0  0  0  0  0  0  0  0  0  0  0
   -4.1627  -44.9217    5.2458 C   0  0  0  0  0  0  0  0  0  0  0  0
    4.4985  -47.9816    6.8935 H   0  0  0  0  0  0  0  0  0  0  0  0
   -0.5640  -52.9666    6.4970 H   0  0  0  0  0  0  0  0  0  0  0  0
   -3.0002  -52.6030    6.1315 H   0  0  0  0  0  0  0  0  0  0  0  0
   -3.8692  -50.2959    5.7838 H   0  0  0  0  0  0  0  0  0  0  0  0
   -2.3218  -48.3607    5.8155 H   0  0  0  0  0  0  0  0  0  0  0  0
    0.7516  -48.7308    5.1768 H   0  0  0  0  0  0  0  0  0  0  0  0
    1.5017  -46.7645    5.8318 H   0  0  0  0  0  0  0  0  0  0  0  0
   -0.2352  -46.8812    5.3887 H   0  0  0  0  0  0  0  0  0  0  0  0
   -0.5905  -47.1673    7.9932 H   0  0  0  0  0  0  0  0  0  0  0  0
    1.0390  -46.4201    8.1063 H   0  0  0  0  0  0  0  0  0  0  0  0
   -0.6472  -44.6861    8.3422 H   0  0  0  0  0  0  0  0  0  0  0  0
    0.1878  -44.4763    6.7657 H   0  0  0  0  0  0  0  0  0  0  0  0
   -6.2865  -45.4736    6.8405 H   0  0  0  0  0  0  0  0  0  0  0  0
   -6.2866  -46.1345    9.2369 H   0  0  0  0  0  0  0  0  0  0  0  0
   -4.1321  -46.3578   10.4615 H   0  0  0  0  0  0  0  0  0  0  0  0
   -1.9828  -45.9288    9.2898 H   0  0  0  0  0  0  0  0  0  0  0  0
   -4.1164  -45.8224    4.6160 H   0  0  0  0  0  0  0  0  0  0  0  0
   -5.0928  -44.3739    5.0342 H   0  0  0  0  0  0  0  0  0  0  0  0
   -3.2992  -44.2764    5.0267 H   0  0  0  0  0  0  0  0  0  0  0  0
  1  2  2  0  0  0  0
  2  3  1  0  0  0  0
  2  4  1  0  0  0  0
  4 11  1  0  0  0  0
  4 22  2  0  0  0  0
  5  6  2  0  0  0  0
  5 10  1  0  0  0  0
  5 22  1  0  0  0  0
  6  7  1  0  0  0  0
  7  8  2  0  0  0  0
  8  9  1  0  0  0  0
  9 10  2  0  0  0  0
 10 11  1  0  0  0  0
 11 12  1  0  0  0  0
 12 13  1  0  0  0  0
 13 14  1  0  0  0  0
 14 15  1  0  0  0  0
 15 16  1  0  0  0  0
 16 17  2  0  0  0  0
 16 21  1  0  0  0  0
 17 18  1  0  0  0  0
 17 23  1  0  0  0  0
 18 19  2  0  0  0  0
 19 20  1  0  0  0  0
 20 21  2  0  0  0  0
  3 24  1  0  0  0  0
  6 25  1  0  0  0  0
  7 26  1  0  0  0  0
  8 27  1  0  0  0  0
  9 28  1  0  0  0  0
 11 29  1  0  0  0  0
 12 30  1  0  0  0  0
 12 31  1  0  0  0  0
 13 32  1  0  0  0  0
 13 33  1  0  0  0  0
 14 34  1  0  0  0  0
 14 35  1  0  0  0  0
 18 36  1  0  0  0  0
 19 37  1  0  0  0  0
 20 38  1  0  0  0  0
 21 39  1  0  0  0  0
 23 40  1  0  0  0  0
 23 41  1  0  0  0  0
 23 42  1  0  0  0  0
M  END
> <r_user_dG.exp>
-6.62149034253618

$$$$
28
  -OEChem-05192314073D
 Structure written by MMmdl.
 42 44  0     1  0  0  0  0  0999 V2000
    3.9028  -50.1313    6.9252 O   0  0  0  0  0  0  0  0  0  0  0  0
    3.1380  -49.1612    6.7262 C   0  0  0  0  0  0  0  0  0  0  0  0
    3.5633  -47.9815    6.7264 O   0  0  0  0  0  0  0  0  0  0  0  0
    1.6985  -49.4262    6.5058 C   0  0  3  0  0  0  0  0  0  0  0  0
   -0.0745  -50.8648    6.3721 C   0  0  0  0  0  0  0  0  0  0  0  0
   -0.9478  -51.9675    6.3522 C   0  0  0  0  0  0  0  0  0  0  0  0
   -2.3225  -51.7622    6.1429 C   0  0  0  0  0  0  0  0  0  0  0  0
   -2.8137  -50.4555    5.9479 C   0  0  0  0  0  0  0  0  0  0  0  0
   -1.9309  -49.3561    5.9665 C   0  0  0  0  0  0  0  0  0  0  0  0
   -0.5423  -49.5315    6.1792 C   0  0  0  0  0  0  0  0  0  0  0  0
    0.5894  -48.6424    6.2612 C   0  0  0  0  0  0  0  0  0  0  0  0
    0.5190  -47.1480    6.1437 C   0  0  0  0  0  0  0  0  0  0  0  0
    0.1328  -46.5094    7.4893 C   0  0  0  0  0  0  0  0  0  0  0  0
   -0.4950  -45.1179    7.3420 C   0  0  0  0  0  0  0  0  0  0  0  0
   -1.7518  -45.1827    6.6677 O   0  0  0  0  0  0  0  0  0  0  0  0
   -2.9007  -45.4447    7.3863 C   0  0  0  0  0  0  0  0  0  0  0  0
   -4.1347  -45.3236    6.7054 C   0  0  0  0  0  0  0  0  0  0  0  0
   -5.3517  -45.5713    7.3725 C   0  0  0  0  0  0  0  0  0  0  0  0
   -5.3529  -45.9452    8.7282 C   0  0  0  0  0  0  0  0  0  0  0  0
   -4.1342  -46.0720    9.4200 C   0  0  0  0  0  0  0  0  0  0  0  0
   -2.9148  -45.8260    8.7539 C   0  0  0  0  0  0  0  0  0  0  0  0
    1.2866  -50.7509    6.5622 N   0  0  0  0  0  0  0  0  0  0  0  0
   -4.1627  -44.9217    5.2458 C   0  0  0  0  0  0  0  0  0  0  0  0
    4.4985  -47.9816    6.8935 H   0  0  0  0  0  0  0  0  0  0  0  0
    1.8763  -49.5218    5.4245 H   0  0  0  0  0  0  0  0  0  0  0  0
   -0.5640  -52.9666    6.4970 H   0  0  0  0  0  0  0  0  0  0  0  0
   -3.0002  -52.6030    6.1315 H   0  0  0  0  0  0  0  0  0  0  0  0
   -3.8692  -50.2959    5.7838 H   0  0  0  0  0  0  0  0  0  0  0  0
   -2.3218  -48.3607    5.8155 H   0  0  0  0  0  0  0  0  0  0  0  0
    1.5017  -46.7645    5.8318 H   0  0  0  0  0  0  0  0  0  0  0  0
   -0.2352  -46.8812    5.3887 H   0  0  0  0  0  0  0  0  0  0  0  0
   -0.5905  -47.1673    7.9932 H   0  0  0  0  0  0  0  0  0  0  0  0
    1.0390  -46.4201    8.1063 H   0  0  0  0  0  0  0  0  0  0  0  0
   -0.6472  -44.6861    8.3422 H   0  0  0  0  0  0  0  0  0  0  0  0
    0.1878  -44.4763    6.7657 H   0  0  0  0  0  0  0  0  0  0  0  0
   -6.2865  -45.4736    6.8405 H   0  0  0  0  0  0  0  0  0  0  0  0
   -6.2866  -46.1345    9.2369 H   0  0  0  0  0  0  0  0  0  0  0  0
   -4.1321  -46.3578   10.4615 H   0  0  0  0  0  0  0  0  0  0  0  0
   -1.9828  -45.9288    9.2898 H   0  0  0  0  0  0  0  0  0  0  0  0
   -4.1164  -45.8224    4.6160 H   0  0  0  0  0  0  0  0  0  0  0  0
   -5.0928  -44.3739    5.0342 H   0  0  0  0  0  0  0  0  0  0  0  0
   -3.2992  -44.2764    5.0267 H   0  0  0  0  0  0  0  0  0  0  0  0
  1  2  2  0  0  0  0
  2  3  1  0  0  0  0
  2  4  1  0  0  0  0
  4 11  1  0  0  0  0
  4 22  1  0  0  0  0
  5  6  1  0  0  0  0
  5 10  1  0  0  0  0
  5 22  2  0  0  0  0
  6  7  2  0  0  0  0
  7  8  1  0  0  0  0
  8  9  2  0  0  0  0
  9 10  1  0  0  0  0
 10 11  2  0  0  0  0
 11 12  1  0  0  0  0
 12 13  1  0  0  0  0
 13 14  1  0  0  0  0
 14 15  1  0  0  0  0
 15 16  1  0  0  0  0
 16 17  2  0  0  0  0
 16 21  1  0  0  0  0
 17 18  1  0  0  0  0
 17 23  1  0  0  0  0
 18 19  2  0  0  0  0
 19 20  1  0  0  0  0
 20 21  2  0  0  0  0
  3 24  1  0  0  0  0
  4 25  1  0  0  0  0
  6 26  1  0  0  0  0
  7 27  1  0  0  0  0
  8 28  1  0  0  0  0
  9 29  1  0  0  0  0
 12 30  1  0  0  0  0
 12 31  1  0  0  0  0
 13 32  1  0  0  0  0
 13 33  1  0  0  0  0
 14 34  1  0  0  0  0
 14 35  1  0  0  0  0
 18 36  1  0  0  0  0
 19 37  1  0  0  0  0
 20 38  1  0  0  0  0
 21 39  1  0  0  0  0
 23 40  1  0  0  0  0
 23 41  1  0  0  0  0
 23 42  1  0  0  0  0
M  END
> <r_user_dG.exp>
-6.62149034253618

$$$$
28
  -OEChem-05192314073D
 Structure written by MMmdl.
 42 44  0     1  0  0  0  0  0999 V2000
    3.9028  -50.1313    6.9252 O   0  0  0  0  0  0  0  0  0  0  0  0
    3.1380  -49.1612    6.7262 C   0  0  0  0  0  0  0  0  0  0  0  0
    3.5633  -47.9815    6.7264 O   0  0  0  0  0  0  0  0  0  0  0  0
    1.6985  -49.4262    6.5058 C   0  0  0  0  0  0  0  0  0  0  0  0
   -0.0745  -50.8648    6.3721 C   0  0  0  0  0  0  0  0  0  0  0  0
   -0.9478  -51.9675    6.3522 C   0  0  0  0  0  0  0  0  0  0  0  0
   -2.3225  -51.7622    6.1429 C   0  0  0  0  0  0  0  0  0  0  0  0
   -2.8137  -50.4555    5.9479 C   0  0  0  0  0  0  0  0  0  0  0  0
   -1.9309  -49.3561    5.9665 C   0  0  0  0  0  0  0  0  0  0  0  0
   -0.5423  -49.5315    6.1792 C   0  0  3  0  0  0  0  0  0  0  0  0
    0.5894  -48.6424    6.2612 C   0  0  0  0  0  0  0  0  0  0  0  0
    0.5190  -47.1480    6.1437 C   0  0  0  0  0  0  0  0  0  0  0  0
    0.1328  -46.5094    7.4893 C   0  0  0  0  0  0  0  0  0  0  0  0
   -0.4950  -45.1179    7.3420 C   0  0  0  0  0  0  0  0  0  0  0  0
   -1.7518  -45.1827    6.6677 O   0  0  0  0  0  0  0  0  0  0  0  0
   -2.9007  -45.4447    7.3863 C   0  0  0  0  0  0  0  0  0  0  0  0
   -4.1347  -45.3236    6.7054 C   0  0  0  0  0  0  0  0  0  0  0  0
   -5.3517  -45.5713    7.3725 C   0  0  0  0  0  0  0  0  0  0  0  0
   -5.3529  -45.9452    8.7282 C   0  0  0  0  0  0  0  0  0  0  0  0
   -4.1342  -46.0720    9.4200 C   0  0  0  0  0  0  0  0  0  0  0  0
   -2.9148  -45.8260    8.7539 C   0  0  0  0  0  0  0  0  0  0  0  0
    1.2866  -50.7509    6.5622 N   0  0  0  0  0  0  0  0  0  0  0  0
   -4.1627  -44.9217    5.2458 C   0  0  0  0  0  0  0  0  0  0  0  0
    4.4985  -47.9816    6.8935 H   0  0  0  0  0  0  0  0  0  0  0  0
   -0.5640  -52.9666    6.4970 H   0  0  0  0  0  0  0  0  0  0  0  0
   -3.0002  -52.6030    6.1315 H   0  0  0  0  0  0  0  0  0  0  0  0
   -3.8692  -50.2959    5.7838 H   0  0  0  0  0  0  0  0  0  0  0  0
   -2.3218  -48.3607    5.8155 H   0  0  0  0  0  0  0  0  0  0  0  0
   -0.3871  -49.6320    5.0949 H   0  0  0  0  0  0  0  0  0  0  0  0
    1.5017  -46.7645    5.8318 H   0  0  0  0  0  0  0  0  0  0  0  0
   -0.2352  -46.8812    5.3887 H   0  0  0  0  0  0  0  0  0  0  0  0
   -0.5905  -47.1673    7.9932 H   0  0  0  0  0  0  0  0  0  0  0  0
    1.0390  -46.4201    8.1063 H   0  0  0  0  0  0  0  0  0  0  0  0
   -0.6472  -44.6861    8.3422 H   0  0  0  0  0  0  0  0  0  0  0  0
    0.1878  -44.4763    6.7657 H   0  0  0  0  0  0  0  0  0  0  0  0
   -6.2865  -45.4736    6.8405 H   0  0  0  0  0  0  0  0  0  0  0  0
   -6.2866  -46.1345    9.2369 H   0  0  0  0  0  0  0  0  0  0  0  0
   -4.1321  -46.3578   10.4615 H   0  0  0  0  0  0  0  0  0  0  0  0
   -1.9828  -45.9288    9.2898 H   0  0  0  0  0  0  0  0  0  0  0  0
   -4.1164  -45.8224    4.6160 H   0  0  0  0  0  0  0  0  0  0  0  0
   -5.0928  -44.3739    5.0342 H   0  0  0  0  0  0  0  0  0  0  0  0
   -3.2992  -44.2764    5.0267 H   0  0  0  0  0  0  0  0  0  0  0  0
  1  2  2  0  0  0  0
  2  3  1  0  0  0  0
  2  4  1  0  0  0  0
  4 11  2  0  0  0  0
  4 22  1  0  0  0  0
  5  6  1  0  0  0  0
  5 10  1  0  0  0  0
  5 22  2  0  0  0  0
  6  7  2  0  0  0  0
  7  8  1  0  0  0  0
  8  9  2  0  0  0  0
  9 10  1  0  0  0  0
 10 11  1  0  0  0  0
 11 12  1  0  0  0  0
 12 13  1  0  0  0  0
 13 14  1  0  0  0  0
 14 15  1  0  0  0  0
 15 16  1  0  0  0  0
 16 17  2  0  0  0  0
 16 21  1  0  0  0  0
 17 18  1  0  0  0  0
 17 23  1  0  0  0  0
 18 19  2  0  0  0  0
 19 20  1  0  0  0  0
 20 21  2  0  0  0  0
  3 24  1  0  0  0  0
  6 25  1  0  0  0  0
  7 26  1  0  0  0  0
  8 27  1  0  0  0  0
  9 28  1  0  0  0  0
 10 29  1  0  0  0  0
 12 30  1  0  0  0  0
 12 31  1  0  0  0  0
 13 32  1  0  0  0  0
 13 33  1  0  0  0  0
 14 34  1  0  0  0  0
 14 35  1  0  0  0  0
 18 36  1  0  0  0  0
 19 37  1  0  0  0  0
 20 38  1  0  0  0  0
 21 39  1  0  0  0  0
 23 40  1  0  0  0  0
 23 41  1  0  0  0  0
 23 42  1  0  0  0  0
M  END
> <r_user_dG.exp>
-6.62149034253618

$$$$
28
  -OEChem-05192314073D
 Structure written by MMmdl.
 42 44  0     1  0  0  0  0  0999 V2000
    3.9028  -50.1313    6.9252 O   0  0  0  0  0  0  0  0  0  0  0  0
    3.1380  -49.1612    6.7262 C   0  0  0  0  0  0  0  0  0  0  0  0
    3.5633  -47.9815    6.7264 O   0  0  0  0  0  0  0  0  0  0  0  0
    1.6985  -49.4262    6.5058 C   0  0  0  0  0  0  0  0  0  0  0  0
   -0.0745  -50.8648    6.3721 C   0  0  3  0  0  0  0  0  0  0  0  0
   -0.9478  -51.9675    6.3522 C   0  0  0  0  0  0  0  0  0  0  0  0
   -2.3225  -51.7622    6.1429 C   0  0  0  0  0  0  0  0  0  0  0  0
   -2.8137  -50.4555    5.9479 C   0  0  0  0  0  0  0  0  0  0  0  0
   -1.9309  -49.3561    5.9665 C   0  0  0  0  0  0  0  0  0  0  0  0
   -0.5423  -49.5315    6.1792 C   0  0  0  0  0  0  0  0  0  0  0  0
    0.5894  -48.6424    6.2612 C   0  0  0  0  0  0  0  0  0  0  0  0
    0.5190  -47.1480    6.1437 C   0  0  0  0  0  0  0  0  0  0  0  0
    0.1328  -46.5094    7.4893 C   0  0  0  0  0  0  0  0  0  0  0  0
   -0.4950  -45.1179    7.3420 C   0  0  0  0  0  0  0  0  0  0  0  0
   -1.7518  -45.1827    6.6677 O   0  0  0  0  0  0  0  0  0  0  0  0
   -2.9007  -45.4447    7.3863 C   0  0  0  0  0  0  0  0  0  0  0  0
   -4.1347  -45.3236    6.7054 C   0  0  0  0  0  0  0  0  0  0  0  0
   -5.3517  -45.5713    7.3725 C   0  0  0  0  0  0  0  0  0  0  0  0
   -5.3529  -45.9452    8.7282 C   0  0  0  0  0  0  0  0  0  0  0  0
   -4.1342  -46.0720    9.4200 C   0  0  0  0  0  0  0  0  0  0  0  0
   -2.9148  -45.8260    8.7539 C   0  0  0  0  0  0  0  0  0  0  0  0
    1.2866  -50.7509    6.5622 N   0  0  0  0  0  0  0  0  0  0  0  0
   -4.1627  -44.9217    5.2458 C   0  0  0  0  0  0  0  0  0  0  0  0
    4.4985  -47.9816    6.8935 H   0  0  0  0  0  0  0  0  0  0  0  0
    0.0836  -50.9681    5.2884 H   0  0  0  0  0  0  0  0  0  0  0  0
   -0.5640  -52.9666    6.4970 H   0  0  0  0  0  0  0  0  0  0  0  0
   -3.0002  -52.6030    6.1315 H   0  0  0  0  0  0  0  0  0  0  0  0
   -3.8692  -50.2959    5.7838 H   0  0  0  0  0  0  0  0  0  0  0  0
   -2.3218  -48.3607    5.8155 H   0  0  0  0  0  0  0  0  0  0  0  0
    1.5017  -46.7645    5.8318 H   0  0  0  0  0  0  0  0  0  0  0  0
   -0.2352  -46.8812    5.3887 H   0  0  0  0  0  0  0  0  0  0  0  0
   -0.5905  -47.1673    7.9932 H   0  0  0  0  0  0  0  0  0  0  0  0
    1.0390  -46.4201    8.1063 H   0  0  0  0  0  0  0  0  0  0  0  0
   -0.6472  -44.6861    8.3422 H   0  0  0  0  0  0  0  0  0  0  0  0
    0.1878  -44.4763    6.7657 H   0  0  0  0  0  0  0  0  0  0  0  0
   -6.2865  -45.4736    6.8405 H   0  0  0  0  0  0  0  0  0  0  0  0
   -6.2866  -46.1345    9.2369 H   0  0  0  0  0  0  0  0  0  0  0  0
   -4.1321  -46.3578   10.4615 H   0  0  0  0  0  0  0  0  0  0  0  0
   -1.9828  -45.9288    9.2898 H   0  0  0  0  0  0  0  0  0  0  0  0
   -4.1164  -45.8224    4.6160 H   0  0  0  0  0  0  0  0  0  0  0  0
   -5.0928  -44.3739    5.0342 H   0  0  0  0  0  0  0  0  0  0  0  0
   -3.2992  -44.2764    5.0267 H   0  0  0  0  0  0  0  0  0  0  0  0
  1  2  2  0  0  0  0
  2  3  1  0  0  0  0
  2  4  1  0  0  0  0
  4 11  1  0  0  0  0
  4 22  2  0  0  0  0
  5  6  1  0  0  0  0
  5 10  1  0  0  0  0
  5 22  1  0  0  0  0
  6  7  2  0  0  0  0
  7  8  1  0  0  0  0
  8  9  2  0  0  0  0
  9 10  1  0  0  0  0
 10 11  2  0  0  0  0
 11 12  1  0  0  0  0
 12 13  1  0  0  0  0
 13 14  1  0  0  0  0
 14 15  1  0  0  0  0
 15 16  1  0  0  0  0
 16 17  2  0  0  0  0
 16 21  1  0  0  0  0
 17 18  1  0  0  0  0
 17 23  1  0  0  0  0
 18 19  2  0  0  0  0
 19 20  1  0  0  0  0
 20 21  2  0  0  0  0
  3 24  1  0  0  0  0
  5 25  1  0  0  0  0
  6 26  1  0  0  0  0
  7 27  1  0  0  0  0
  8 28  1  0  0  0  0
  9 29  1  0  0  0  0
 12 30  1  0  0  0  0
 12 31  1  0  0  0  0
 13 32  1  0  0  0  0
 13 33  1  0  0  0  0
 14 34  1  0  0  0  0
 14 35  1  0  0  0  0
 18 36  1  0  0  0  0
 19 37  1  0  0  0  0
 20 38  1  0  0  0  0
 21 39  1  0  0  0  0
 23 40  1  0  0  0  0
 23 41  1  0  0  0  0
 23 42  1  0  0  0  0
M  END
> <r_user_dG.exp>
-6.62149034253618

$$$$
28
  -OEChem-05192314073D
 Structure written by MMmdl.
 42 44  0     0  0  0  0  0  0999 V2000
    3.9028  -50.1313    6.9252 O   0  0  0  0  0  0  0  0  0  0  0  0
    3.1380  -49.1612    6.7262 C   0  0  0  0  0  0  0  0  0  0  0  0
    3.5633  -47.9815    6.7264 O   0  0  0  0  0  0  0  0  0  0  0  0
    1.6985  -49.4262    6.5058 C   0  0  0  0  0  0  0  0  0  0  0  0
   -0.0745  -50.8648    6.3721 C   0  0  0  0  0  0  0  0  0  0  0  0
   -0.9478  -51.9675    6.3522 C   0  0  0  0  0  0  0  0  0  0  0  0
   -2.3225  -51.7622    6.1429 C   0  0  0  0  0  0  0  0  0  0  0  0
   -2.8137  -50.4555    5.9479 C   0  0  0  0  0  0  0  0  0  0  0  0
   -1.9309  -49.3561    5.9665 C   0  0  0  0  0  0  0  0  0  0  0  0
   -0.5423  -49.5315    6.1792 C   0  0  0  0  0  0  0  0  0  0  0  0
    0.5894  -48.6424    6.2612 C   0  0  0  0  0  0  0  0  0  0  0  0
    0.5190  -47.1480    6.1437 C   0  0  0  0  0  0  0  0  0  0  0  0
    0.1328  -46.5094    7.4893 C   0  0  0  0  0  0  0  0  0  0  0  0
   -0.4950  -45.1179    7.3420 C   0  0  0  0  0  0  0  0  0  0  0  0
   -1.7518  -45.1827    6.6677 O   0  0  0  0  0  0  0  0  0  0  0  0
   -2.9007  -45.4447    7.3863 C   0  0  0  0  0  0  0  0  0  0  0  0
   -4.1347  -45.3236    6.7054 C   0  0  0  0  0  0  0  0  0  0  0  0
   -5.3517  -45.5713    7.3725 C   0  0  0  0  0  0  0  0  0  0  0  0
   -5.3529  -45.9452    8.7282 C   0  0  0  0  0  0  0  0  0  0  0  0
   -4.1342  -46.0720    9.4200 C   0  0  0  0  0  0  0  0  0  0  0  0
   -2.9148  -45.8260    8.7539 C   0  0  0  0  0  0  0  0  0  0  0  0
    1.2866  -50.7509    6.5622 N   0  0  0  0  0  0  0  0  0  0  0  0
   -4.1627  -44.9217    5.2458 C   0  0  0  0  0  0  0  0  0  0  0  0
    4.4985  -47.9816    6.8935 H   0  0  0  0  0  0  0  0  0  0  0  0
   -0.5640  -52.9666    6.4970 H   0  0  0  0  0  0  0  0  0  0  0  0
   -3.0002  -52.6030    6.1315 H   0  0  0  0  0  0  0  0  0  0  0  0
   -3.3096  -50.4469    4.9660 H   0  0  0  0  0  0  0  0  0  0  0  0
   -3.5591  -50.2764    6.7367 H   0  0  0  0  0  0  0  0  0  0  0  0
   -2.3218  -48.3607    5.8155 H   0  0  0  0  0  0  0  0  0  0  0  0
    1.5017  -46.7645    5.8318 H   0  0  0  0  0  0  0  0  0  0  0  0
   -0.2352  -46.8812    5.3887 H   0  0  0  0  0  0  0  0  0  0  0  0
   -0.5905  -47.1673    7.9932 H   0  0  0  0  0  0  0  0  0  0  0  0
    1.0390  -46.4201    8.1063 H   0  0  0  0  0  0  0  0  0  0  0  0
   -0.6472  -44.6861    8.3422 H   0  0  0  0  0  0  0  0  0  0  0  0
    0.1878  -44.4763    6.7657 H   0  0  0  0  0  0  0  0  0  0  0  0
   -6.2865  -45.4736    6.8405 H   0  0  0  0  0  0  0  0  0  0  0  0
   -6.2866  -46.1345    9.2369 H   0  0  0  0  0  0  0  0  0  0  0  0
   -4.1321  -46.3578   10.4615 H   0  0  0  0  0  0  0  0  0  0  0  0
   -1.9828  -45.9288    9.2898 H   0  0  0  0  0  0  0  0  0  0  0  0
   -4.1164  -45.8224    4.6160 H   0  0  0  0  0  0  0  0  0  0  0  0
   -5.0928  -44.3739    5.0342 H   0  0  0  0  0  0  0  0  0  0  0  0
   -3.2992  -44.2764    5.0267 H   0  0  0  0  0  0  0  0  0  0  0  0
  1  2  2  0  0  0  0
  2  3  1  0  0  0  0
  2  4  1  0  0  0  0
  4 11  2  0  0  0  0
  4 22  1  0  0  0  0
  5  6  1  0  0  0  0
  5 10  1  0  0  0  0
  5 22  2  0  0  0  0
  6  7  2  0  0  0  0
  7  8  1  0  0  0  0
  8  9  1  0  0  0  0
  9 10  2  0  0  0  0
 10 11  1  0  0  0  0
 11 12  1  0  0  0  0
 12 13  1  0  0  0  0
 13 14  1  0  0  0  0
 14 15  1  0  0  0  0
 15 16  1  0  0  0  0
 16 17  2  0  0  0  0
 16 21  1  0  0  0  0
 17 18  1  0  0  0  0
 17 23  1  0  0  0  0
 18 19  2  0  0  0  0
 19 20  1  0  0  0  0
 20 21  2  0  0  0  0
  3 24  1  0  0  0  0
  6 25  1  0  0  0  0
  7 26  1  0  0  0  0
  8 27  1  0  0  0  0
  8 28  1  0  0  0  0
  9 29  1  0  0  0  0
 12 30  1  0  0  0  0
 12 31  1  0  0  0  0
 13 32  1  0  0  0  0
 13 33  1  0  0  0  0
 14 34  1  0  0  0  0
 14 35  1  0  0  0  0
 18 36  1  0  0  0  0
 19 37  1  0  0  0  0
 20 38  1  0  0  0  0
 21 39  1  0  0  0  0
 23 40  1  0  0  0  0
 23 41  1  0  0  0  0
 23 42  1  0  0  0  0
M  END
> <r_user_dG.exp>
-6.62149034253618

$$$$
28
  -OEChem-05192314073D
 Structure written by MMmdl.
 42 44  0     0  0  0  0  0  0999 V2000
    3.9028  -50.1313    6.9252 O   0  0  0  0  0  0  0  0  0  0  0  0
    3.1380  -49.1612    6.7262 C   0  0  0  0  0  0  0  0  0  0  0  0
    3.5633  -47.9815    6.7264 O   0  0  0  0  0  0  0  0  0  0  0  0
    1.6985  -49.4262    6.5058 C   0  0  0  0  0  0  0  0  0  0  0  0
   -0.0745  -50.8648    6.3721 C   0  0  0  0  0  0  0  0  0  0  0  0
   -0.9478  -51.9675    6.3522 C   0  0  0  0  0  0  0  0  0  0  0  0
   -2.3225  -51.7622    6.1429 C   0  0  0  0  0  0  0  0  0  0  0  0
   -2.8137  -50.4555    5.9479 C   0  0  0  0  0  0  0  0  0  0  0  0
   -1.9309  -49.3561    5.9665 C   0  0  0  0  0  0  0  0  0  0  0  0
   -0.5423  -49.5315    6.1792 C   0  0  0  0  0  0  0  0  0  0  0  0
    0.5894  -48.6424    6.2612 C   0  0  0  0  0  0  0  0  0  0  0  0
    0.5190  -47.1480    6.1437 C   0  0  0  0  0  0  0  0  0  0  0  0
    0.1328  -46.5094    7.4893 C   0  0  0  0  0  0  0  0  0  0  0  0
   -0.4950  -45.1179    7.3420 C   0  0  0  0  0  0  0  0  0  0  0  0
   -1.7518  -45.1827    6.6677 O   0  0  0  0  0  0  0  0  0  0  0  0
   -2.9007  -45.4447    7.3863 C   0  0  0  0  0  0  0  0  0  0  0  0
   -4.1347  -45.3236    6.7054 C   0  0  0  0  0  0  0  0  0  0  0  0
   -5.3517  -45.5713    7.3725 C   0  0  0  0  0  0  0  0  0  0  0  0
   -5.3529  -45.9452    8.7282 C   0  0  0  0  0  0  0  0  0  0  0  0
   -4.1342  -46.0720    9.4200 C   0  0  0  0  0  0  0  0  0  0  0  0
   -2.9148  -45.8260    8.7539 C   0  0  0  0  0  0  0  0  0  0  0  0
    1.2866  -50.7509    6.5622 N   0  0  0  0  0  0  0  0  0  0  0  0
   -4.1627  -44.9217    5.2458 C   0  0  0  0  0  0  0  0  0  0  0  0
    4.4985  -47.9816    6.8935 H   0  0  0  0  0  0  0  0  0  0  0  0
   -0.5640  -52.9666    6.4970 H   0  0  0  0  0  0  0  0  0  0  0  0
   -2.5991  -52.3429    5.2506 H   0  0  0  0  0  0  0  0  0  0  0  0
   -2.8430  -52.1703    7.0218 H   0  0  0  0  0  0  0  0  0  0  0  0
   -3.8692  -50.2959    5.7838 H   0  0  0  0  0  0  0  0  0  0  0  0
   -2.3218  -48.3607    5.8155 H   0  0  0  0  0  0  0  0  0  0  0  0
    1.5017  -46.7645    5.8318 H   0  0  0  0  0  0  0  0  0  0  0  0
   -0.2352  -46.8812    5.3887 H   0  0  0  0  0  0  0  0  0  0  0  0
   -0.5905  -47.1673    7.9932 H   0  0  0  0  0  0  0  0  0  0  0  0
    1.0390  -46.4201    8.1063 H   0  0  0  0  0  0  0  0  0  0  0  0
   -0.6472  -44.6861    8.3422 H   0  0  0  0  0  0  0  0  0  0  0  0
    0.1878  -44.4763    6.7657 H   0  0  0  0  0  0  0  0  0  0  0  0
   -6.2865  -45.4736    6.8405 H   0  0  0  0  0  0  0  0  0  0  0  0
   -6.2866  -46.1345    9.2369 H   0  0  0  0  0  0  0  0  0  0  0  0
   -4.1321  -46.3578   10.4615 H   0  0  0  0  0  0  0  0  0  0  0  0
   -1.9828  -45.9288    9.2898 H   0  0  0  0  0  0  0  0  0  0  0  0
   -4.1164  -45.8224    4.6160 H   0  0  0  0  0  0  0  0  0  0  0  0
   -5.0928  -44.3739    5.0342 H   0  0  0  0  0  0  0  0  0  0  0  0
   -3.2992  -44.2764    5.0267 H   0  0  0  0  0  0  0  0  0  0  0  0
  1  2  2  0  0  0  0
  2  3  1  0  0  0  0
  2  4  1  0  0  0  0
  4 11  1  0  0  0  0
  4 22  2  0  0  0  0
  5  6  2  0  0  0  0
  5 10  1  0  0  0  0
  5 22  1  0  0  0  0
  6  7  1  0  0  0  0
  7  8  1  0  0  0  0
  8  9  2  0  0  0  0
  9 10  1  0  0  0  0
 10 11  2  0  0  0  0
 11 12  1  0  0  0  0
 12 13  1  0  0  0  0
 13 14  1  0  0  0  0
 14 15  1  0  0  0  0
 15 16  1  0  0  0  0
 16 17  2  0  0  0  0
 16 21  1  0  0  0  0
 17 18  1  0  0  0  0
 17 23  1  0  0  0  0
 18 19  2  0  0  0  0
 19 20  1  0  0  0  0
 20 21  2  0  0  0  0
  3 24  1  0  0  0  0
  6 25  1  0  0  0  0
  7 26  1  0  0  0  0
  7 27  1  0  0  0  0
  8 28  1  0  0  0  0
  9 29  1  0  0  0  0
 12 30  1  0  0  0  0
 12 31  1  0  0  0  0
 13 32  1  0  0  0  0
 13 33  1  0  0  0  0
 14 34  1  0  0  0  0
 14 35  1  0  0  0  0
 18 36  1  0  0  0  0
 19 37  1  0  0  0  0
 20 38  1  0  0  0  0
 21 39  1  0  0  0  0
 23 40  1  0  0  0  0
 23 41  1  0  0  0  0
 23 42  1  0  0  0  0
M  END
> <r_user_dG.exp>
-6.62149034253618

$$$$
28
  -OEChem-05192314073D
 Structure written by MMmdl.
 42 44  0     0  0  0  0  0  0999 V2000
    3.9028  -50.1313    6.9252 O   0  0  0  0  0  0  0  0  0  0  0  0
    3.1380  -49.1612    6.7262 C   0  0  0  0  0  0  0  0  0  0  0  0
    3.5633  -47.9815    6.7264 O   0  0  0  0  0  0  0  0  0  0  0  0
    1.6985  -49.4262    6.5058 C   0  0  0  0  0  0  0  0  0  0  0  0
   -0.0745  -50.8648    6.3721 C   0  0  0  0  0  0  0  0  0  0  0  0
   -0.9478  -51.9675    6.3522 C   0  0  0  0  0  0  0  0  0  0  0  0
   -2.3225  -51.7622    6.1429 C   0  0  0  0  0  0  0  0  0  0  0  0
   -2.8137  -50.4555    5.9479 C   0  0  0  0  0  0  0  0  0  0  0  0
   -1.9309  -49.3561    5.9665 C   0  0  0  0  0  0  0  0  0  0  0  0
   -0.5423  -49.5315    6.1792 C   0  0  0  0  0  0  0  0  0  0  0  0
    0.5894  -48.6424    6.2612 C   0  0  0  0  0  0  0  0  0  0  0  0
    0.5190  -47.1480    6.1437 C   0  0  0  0  0  0  0  0  0  0  0  0
    0.1328  -46.5094    7.4893 C   0  0  0  0  0  0  0  0  0  0  0  0
   -0.4950  -45.1179    7.3420 C   0  0  0  0  0  0  0  0  0  0  0  0
   -1.7518  -45.1827    6.6677 O   0  0  0  0  0  0  0  0  0  0  0  0
   -2.9007  -45.4447    7.3863 C   0  0  0  0  0  0  0  0  0  0  0  0
   -4.1347  -45.3236    6.7054 C   0  0  0  0  0  0  0  0  0  0  0  0
   -5.3517  -45.5713    7.3725 C   0  0  0  0  0  0  0  0  0  0  0  0
   -5.3529  -45.9452    8.7282 C   0  0  0  0  0  0  0  0  0  0  0  0
   -4.1342  -46.0720    9.4200 C   0  0  0  0  0  0  0  0  0  0  0  0
   -2.9148  -45.8260    8.7539 C   0  0  0  0  0  0  0  0  0  0  0  0
    1.2866  -50.7509    6.5622 N   0  0  0  0  0  0  0  0  0  0  0  0
   -4.1627  -44.9217    5.2458 C   0  0  0  0  0  0  0  0  0  0  0  0
    4.4985  -47.9816    6.8935 H   0  0  0  0  0  0  0  0  0  0  0  0
   -0.5994  -52.6362    5.5513 H   0  0  0  0  0  0  0  0  0  0  0  0
   -0.8449  -52.4738    7.3233 H   0  0  0  0  0  0  0  0  0  0  0  0
   -3.0002  -52.6030    6.1315 H   0  0  0  0  0  0  0  0  0  0  0  0
   -3.8692  -50.2959    5.7838 H   0  0  0  0  0  0  0  0  0  0  0  0
   -2.3218  -48.3607    5.8155 H   0  0  0  0  0  0  0  0  0  0  0  0
    1.5017  -46.7645    5.8318 H   0  0  0  0  0  0  0  0  0  0  0  0
   -0.2352  -46.8812    5.3887 H   0  0  0  0  0  0  0  0  0  0  0  0
   -0.5905  -47.1673    7.9932 H   0  0  0  0  0  0  0  0  0  0  0  0
    1.0390  -46.4201    8.1063 H   0  0  0  0  0  0  0  0  0  0  0  0
   -0.6472  -44.6861    8.3422 H   0  0  0  0  0  0  0  0  0  0  0  0
    0.1878  -44.4763    6.7657 H   0  0  0  0  0  0  0  0  0  0  0  0
   -6.2865  -45.4736    6.8405 H   0  0  0  0  0  0  0  0  0  0  0  0
   -6.2866  -46.1345    9.2369 H   0  0  0  0  0  0  0  0  0  0  0  0
   -4.1321  -46.3578   10.4615 H   0  0  0  0  0  0  0  0  0  0  0  0
   -1.9828  -45.9288    9.2898 H   0  0  0  0  0  0  0  0  0  0  0  0
   -4.1164  -45.8224    4.6160 H   0  0  0  0  0  0  0  0  0  0  0  0
   -5.0928  -44.3739    5.0342 H   0  0  0  0  0  0  0  0  0  0  0  0
   -3.2992  -44.2764    5.0267 H   0  0  0  0  0  0  0  0  0  0  0  0
  1  2  2  0  0  0  0
  2  3  1  0  0  0  0
  2  4  1  0  0  0  0
  4 11  2  0  0  0  0
  4 22  1  0  0  0  0
  5  6  1  0  0  0  0
  5 10  1  0  0  0  0
  5 22  2  0  0  0  0
  6  7  1  0  0  0  0
  7  8  2  0  0  0  0
  8  9  1  0  0  0  0
  9 10  2  0  0  0  0
 10 11  1  0  0  0  0
 11 12  1  0  0  0  0
 12 13  1  0  0  0  0
 13 14  1  0  0  0  0
 14 15  1  0  0  0  0
 15 16  1  0  0  0  0
 16 17  2  0  0  0  0
 16 21  1  0  0  0  0
 17 18  1  0  0  0  0
 17 23  1  0  0  0  0
 18 19  2  0  0  0  0
 19 20  1  0  0  0  0
 20 21  2  0  0  0  0
  3 24  1  0  0  0  0
  6 25  1  0  0  0  0
  6 26  1  0  0  0  0
  7 27  1  0  0  0  0
  8 28  1  0  0  0  0
  9 29  1  0  0  0  0
 12 30  1  0  0  0  0
 12 31  1  0  0  0  0
 13 32  1  0  0  0  0
 13 33  1  0  0  0  0
 14 34  1  0  0  0  0
 14 35  1  0  0  0  0
 18 36  1  0  0  0  0
 19 37  1  0  0  0  0
 20 38  1  0  0  0  0
 21 39  1  0  0  0  0
 23 40  1  0  0  0  0
 23 41  1  0  0  0  0
 23 42  1  0  0  0  0
M  END
> <r_user_dG.exp>
-6.62149034253618

$$$$
28
  -OEChem-05192314073D
 Structure written by MMmdl.
 42 44  0     0  0  0  0  0  0999 V2000
    3.9028  -50.1313    6.9252 O   0  0  0  0  0  0  0  0  0  0  0  0
    3.1380  -49.1612    6.7262 C   0  0  0  0  0  0  0  0  0  0  0  0
    3.5633  -47.9815    6.7264 O   0  0  0  0  0  0  0  0  0  0  0  0
    1.6985  -49.4262    6.5058 C   0  0  0  0  0  0  0  0  0  0  0  0
   -0.0745  -50.8648    6.3721 C   0  0  0  0  0  0  0  0  0  0  0  0
   -0.9478  -51.9675    6.3522 C   0  0  0  0  0  0  0  0  0  0  0  0
   -2.3225  -51.7622    6.1429 C   0  0  0  0  0  0  0  0  0  0  0  0
   -2.8137  -50.4555    5.9479 C   0  0  0  0  0  0  0  0  0  0  0  0
   -1.9309  -49.3561    5.9665 C   0  0  0  0  0  0  0  0  0  0  0  0
   -0.5423  -49.5315    6.1792 C   0  0  0  0  0  0  0  0  0  0  0  0
    0.5894  -48.6424    6.2612 C   0  0  0  0  0  0  0  0  0  0  0  0
    0.5190  -47.1480    6.1437 C   0  0  0  0  0  0  0  0  0  0  0  0
    0.1328  -46.5094    7.4893 C   0  0  0  0  0  0  0  0  0  0  0  0
   -0.4950  -45.1179    7.3420 C   0  0  0  0  0  0  0  0  0  0  0  0
   -1.7518  -45.1827    6.6677 O   0  0  0  0  0  0  0  0  0  0  0  0
   -2.9007  -45.4447    7.3863 C   0  0  0  0  0  0  0  0  0  0  0  0
   -4.1347  -45.3236    6.7054 C   0  0  0  0  0  0  0  0  0  0  0  0
   -5.3517  -45.5713    7.3725 C   0  0  0  0  0  0  0  0  0  0  0  0
   -5.3529  -45.9452    8.7282 C   0  0  0  0  0  0  0  0  0  0  0  0
   -4.1342  -46.0720    9.4200 C   0  0  0  0  0  0  0  0  0  0  0  0
   -2.9148  -45.8260    8.7539 C   0  0  0  0  0  0  0  0  0  0  0  0
    1.2866  -50.7509    6.5622 N   0  0  0  0  0  0  0  0  0  0  0  0
   -4.1627  -44.9217    5.2458 C   0  0  0  0  0  0  0  0  0  0  0  0
    4.4985  -47.9816    6.8935 H   0  0  0  0  0  0  0  0  0  0  0  0
   -0.5640  -52.9666    6.4970 H   0  0  0  0  0  0  0  0  0  0  0  0
   -3.0002  -52.6030    6.1315 H   0  0  0  0  0  0  0  0  0  0  0  0
   -3.8692  -50.2959    5.7838 H   0  0  0  0  0  0  0  0  0  0  0  0
   -2.0359  -48.8560    4.9924 H   0  0  0  0  0  0  0  0  0  0  0  0
   -2.2856  -48.6855    6.7630 H   0  0  0  0  0  0  0  0  0  0  0  0
    1.5017  -46.7645    5.8318 H   0  0  0  0  0  0  0  0  0  0  0  0
   -0.2352  -46.8812    5.3887 H   0  0  0  0  0  0  0  0  0  0  0  0
   -0.5905  -47.1673    7.9932 H   0  0  0  0  0  0  0  0  0  0  0  0
    1.0390  -46.4201    8.1063 H   0  0  0  0  0  0  0  0  0  0  0  0
   -0.6472  -44.6861    8.3422 H   0  0  0  0  0  0  0  0  0  0  0  0
    0.1878  -44.4763    6.7657 H   0  0  0  0  0  0  0  0  0  0  0  0
   -6.2865  -45.4736    6.8405 H   0  0  0  0  0  0  0  0  0  0  0  0
   -6.2866  -46.1345    9.2369 H   0  0  0  0  0  0  0  0  0  0  0  0
   -4.1321  -46.3578   10.4615 H   0  0  0  0  0  0  0  0  0  0  0  0
   -1.9828  -45.9288    9.2898 H   0  0  0  0  0  0  0  0  0  0  0  0
   -4.1164  -45.8224    4.6160 H   0  0  0  0  0  0  0  0  0  0  0  0
   -5.0928  -44.3739    5.0342 H   0  0  0  0  0  0  0  0  0  0  0  0
   -3.2992  -44.2764    5.0267 H   0  0  0  0  0  0  0  0  0  0  0  0
  1  2  2  0  0  0  0
  2  3  1  0  0  0  0
  2  4  1  0  0  0  0
  4 11  1  0  0  0  0
  4 22  2  0  0  0  0
  5  6  2  0  0  0  0
  5 10  1  0  0  0  0
  5 22  1  0  0  0  0
  6  7  1  0  0  0  0
  7  8  2  0  0  0  0
  8  9  1  0  0  0  0
  9 10  1  0  0  0  0
 10 11  2  0  0  0  0
 11 12  1  0  0  0  0
 12 13  1  0  0  0  0
 13 14  1  0  0  0  0
 14 15  1  0  0  0  0
 15 16  1  0  0  0  0
 16 17  2  0  0  0  0
 16 21  1  0  0  0  0
 17 18  1  0  0  0  0
 17 23  1  0  0  0  0
 18 19  2  0  0  0  0
 19 20  1  0  0  0  0
 20 21  2  0  0  0  0
  3 24  1  0  0  0  0
  6 25  1  0  0  0  0
  7 26  1  0  0  0  0
  8 27  1  0  0  0  0
  9 28  1  0  0  0  0
  9 29  1  0  0  0  0
 12 30  1  0  0  0  0
 12 31  1  0  0  0  0
 13 32  1  0  0  0  0
 13 33  1  0  0  0  0
 14 34  1  0  0  0  0
 14 35  1  0  0  0  0
 18 36  1  0  0  0  0
 19 37  1  0  0  0  0
 20 38  1  0  0  0  0
 21 39  1  0  0  0  0
 23 40  1  0  0  0  0
 23 41  1  0  0  0  0
 23 42  1  0  0  0  0
M  END
> <r_user_dG.exp>
-6.62149034253618

$$$$
28
  -OEChem-05192314073D
 Structure written by MMmdl.
 42 44  0     0  0  0  0  0  0999 V2000
    3.9028  -50.1313    6.9252 O   0  0  0  0  0  0  0  0  0  0  0  0
    3.1380  -49.1612    6.7262 C   0  0  0  0  0  0  0  0  0  0  0  0
    3.5633  -47.9815    6.7264 O   0  0  0  0  0  0  0  0  0  0  0  0
    1.6985  -49.4262    6.5058 C   0  0  0  0  0  0  0  0  0  0  0  0
   -0.0745  -50.8648    6.3721 C   0  0  0  0  0  0  0  0  0  0  0  0
   -0.9478  -51.9675    6.3522 C   0  0  0  0  0  0  0  0  0  0  0  0
   -2.3225  -51.7622    6.1429 C   0  0  0  0  0  0  0  0  0  0  0  0
   -2.8137  -50.4555    5.9479 C   0  0  0  0  0  0  0  0  0  0  0  0
   -1.9309  -49.3561    5.9665 C   0  0  0  0  0  0  0  0  0  0  0  0
   -0.5423  -49.5315    6.1792 C   0  0  0  0  0  0  0  0  0  0  0  0
    0.5894  -48.6424    6.2612 C   0  0  0  0  0  0  0  0  0  0  0  0
    0.5190  -47.1480    6.1437 C   0  0  0  0  0  0  0  0  0  0  0  0
    0.1328  -46.5094    7.4893 C   0  0  0  0  0  0  0  0  0  0  0  0
   -0.4950  -45.1179    7.3420 C   0  0  0  0  0  0  0  0  0  0  0  0
   -1.7518  -45.1827    6.6677 O   0  0  0  0  0  0  0  0  0  0  0  0
   -2.9007  -45.4447    7.3863 C   0  0  0  0  0  0  0  0  0  0  0  0
   -4.1347  -45.3236    6.7054 C   0  0  0  0  0  0  0  0  0  0  0  0
   -5.3517  -45.5713    7.3725 C   0  0  0  0  0  0  0  0  0  0  0  0
   -5.3529  -45.9452    8.7282 C   0  0  0  0  0  0  0  0  0  0  0  0
   -4.1342  -46.0720    9.4200 C   0  0  0  0  0  0  0  0  0  0  0  0
   -2.9148  -45.8260    8.7539 C   0  0  0  0  0  0  0  0  0  0  0  0
    1.2866  -50.7509    6.5622 N   0  0  0  0  0  0  0  0  0  0  0  0
   -4.1627  -44.9217    5.2458 C   0  0  0  0  0  0  0  0  0  0  0  0
    3.4055  -50.9399    6.8883 H   0  0  0  0  0  0  0  0  0  0  0  0
    2.8432  -47.3848    6.5594 H   0  0  0  0  0  0  0  0  0  0  0  0
   -0.5640  -52.9666    6.4970 H   0  0  0  0  0  0  0  0  0  0  0  0
   -3.0002  -52.6030    6.1315 H   0  0  0  0  0  0  0  0  0  0  0  0
   -3.8692  -50.2959    5.7838 H   0  0  0  0  0  0  0  0  0  0  0  0
   -2.3218  -48.3607    5.8155 H   0  0  0  0  0  0  0  0  0  0  0  0
    1.5017  -46.7645    5.8318 H   0  0  0  0  0  0  0  0  0  0  0  0
   -0.2352  -46.8812    5.3887 H   0  0  0  0  0  0  0  0  0  0  0  0
   -0.5905  -47.1673    7.9932 H   0  0  0  0  0  0  0  0  0  0  0  0
    1.0390  -46.4201    8.1063 H   0  0  0  0  0  0  0  0  0  0  0  0
   -0.6472  -44.6861    8.3422 H   0  0  0  0  0  0  0  0  0  0  0  0
    0.1878  -44.4763    6.7657 H   0  0  0  0  0  0  0  0  0  0  0  0
   -6.2865  -45.4736    6.8405 H   0  0  0  0  0  0  0  0  0  0  0  0
   -6.2866  -46.1345    9.2369 H   0  0  0  0  0  0  0  0  0  0  0  0
   -4.1321  -46.3578   10.4615 H   0  0  0  0  0  0  0  0  0  0  0  0
   -1.9828  -45.9288    9.2898 H   0  0  0  0  0  0  0  0  0  0  0  0
   -4.1164  -45.8224    4.6160 H   0  0  0  0  0  0  0  0  0  0  0  0
   -5.0928  -44.3739    5.0342 H   0  0  0  0  0  0  0  0  0  0  0  0
   -3.2992  -44.2764    5.0267 H   0  0  0  0  0  0  0  0  0  0  0  0
  1  2  1  0  0  0  0
  2  3  1  0  0  0  0
  2  4  2  0  0  0  0
  4 11  1  0  0  0  0
  4 22  1  0  0  0  0
  5  6  1  0  0  0  0
  5 10  1  0  0  0  0
  5 22  2  0  0  0  0
  6  7  2  0  0  0  0
  7  8  1  0  0  0  0
  8  9  2  0  0  0  0
  9 10  1  0  0  0  0
 10 11  2  0  0  0  0
 11 12  1  0  0  0  0
 12 13  1  0  0  0  0
 13 14  1  0  0  0  0
 14 15  1  0  0  0  0
 15 16  1  0  0  0  0
 16 17  2  0  0  0  0
 16 21  1  0  0  0  0
 17 18  1  0  0  0  0
 17 23  1  0  0  0  0
 18 19  2  0  0  0  0
 19 20  1  0  0  0  0
 20 21  2  0  0  0  0
  1 24  1  0  0  0  0
  3 25  1  0  0  0  0
  6 26  1  0  0  0  0
  7 27  1  0  0  0  0
  8 28  1  0  0  0  0
  9 29  1  0  0  0  0
 12 30  1  0  0  0  0
 12 31  1  0  0  0  0
 13 32  1  0  0  0  0
 13 33  1  0  0  0  0
 14 34  1  0  0  0  0
 14 35  1  0  0  0  0
 18 36  1  0  0  0  0
 19 37  1  0  0  0  0
 20 38  1  0  0  0  0
 21 39  1  0  0  0  0
 23 40  1  0  0  0  0
 23 41  1  0  0  0  0
 23 42  1  0  0  0  0
M  END
> <r_user_dG.exp>
-6.62149034253618

$$$$
