27
  -OEChem-05192314073D
 Structure written by MMmdl.
 39 41  0     0  0  0  0  0  0999 V2000
    3.5620  -47.7655    6.2857 O   0  0  0  0  0  0  0  0  0  0  0  0
    3.0106  -48.7677    6.7913 C   0  0  0  0  0  0  0  0  0  0  0  0
    3.6267  -49.5212    7.5837 O   0  0  0  0  0  0  0  0  0  0  0  0
    1.5987  -49.0922    6.4610 C   0  0  0  0  0  0  0  0  0  0  0  0
   -0.2460  -50.4444    6.5734 C   0  0  0  0  0  0  0  0  0  0  0  0
   -1.2006  -51.4538    6.8287 C   0  0  0  0  0  0  0  0  0  0  0  0
   -2.4848  -51.3550    6.2582 C   0  0  0  0  0  0  0  0  0  0  0  0
   -2.8075  -50.2415    5.4534 C   0  0  0  0  0  0  0  0  0  0  0  0
   -1.8538  -49.2332    5.2139 C   0  0  0  0  0  0  0  0  0  0  0  0
   -0.5510  -49.3043    5.7662 C   0  0  0  0  0  0  0  0  0  0  0  0
    0.6244  -48.4626    5.7171 C   0  0  0  0  0  0  0  0  0  0  0  0
    0.7436  -47.1491    4.9892 C   0  0  0  0  0  0  0  0  0  0  0  0
    0.8629  -45.9369    5.9353 C   0  0  0  0  0  0  0  0  0  0  0  0
   -0.3435  -45.7461    6.8598 C   0  0  0  0  0  0  0  0  0  0  0  0
   -1.4738  -45.3700    6.0783 O   0  0  0  0  0  0  0  0  0  0  0  0
   -2.6659  -45.1791    6.7323 C   0  0  0  0  0  0  0  0  0  0  0  0
   -2.8936  -45.5089    8.0957 C   0  0  0  0  0  0  0  0  0  0  0  0
   -4.1486  -45.2841    8.6877 C   0  0  0  0  0  0  0  0  0  0  0  0
   -5.1945  -44.7219    7.9306 C   0  0  0  0  0  0  0  0  0  0  0  0
   -4.9832  -44.3904    6.5801 C   0  0  0  0  0  0  0  0  0  0  0  0
   -3.7285  -44.6254    5.9884 C   0  0  0  0  0  0  0  0  0  0  0  0
    1.0676  -50.2717    6.9802 N   0  0  0  0  0  0  0  0  0  0  0  0
    4.5121  -49.1987    7.7042 H   0  0  0  0  0  0  0  0  0  0  0  0
   -0.9477  -52.2952    7.4567 H   0  0  0  0  0  0  0  0  0  0  0  0
   -3.2186  -52.1273    6.4358 H   0  0  0  0  0  0  0  0  0  0  0  0
   -3.7927  -50.1620    5.0181 H   0  0  0  0  0  0  0  0  0  0  0  0
   -2.1211  -48.3884    4.5965 H   0  0  0  0  0  0  0  0  0  0  0  0
    1.6388  -47.1835    4.3509 H   0  0  0  0  0  0  0  0  0  0  0  0
   -0.1496  -47.0155    4.3612 H   0  0  0  0  0  0  0  0  0  0  0  0
    1.7587  -46.0721    6.5592 H   0  0  0  0  0  0  0  0  0  0  0  0
    0.9760  -45.0302    5.3229 H   0  0  0  0  0  0  0  0  0  0  0  0
   -0.5566  -46.6879    7.3866 H   0  0  0  0  0  0  0  0  0  0  0  0
   -0.1240  -44.9569    7.5939 H   0  0  0  0  0  0  0  0  0  0  0  0
   -2.0944  -45.9365    8.6829 H   0  0  0  0  0  0  0  0  0  0  0  0
   -4.3108  -45.5427    9.7237 H   0  0  0  0  0  0  0  0  0  0  0  0
   -6.1576  -44.5455    8.3863 H   0  0  0  0  0  0  0  0  0  0  0  0
   -5.7828  -43.9562    5.9983 H   0  0  0  0  0  0  0  0  0  0  0  0
   -3.5767  -44.3779    4.9482 H   0  0  0  0  0  0  0  0  0  0  0  0
    1.5675  -50.9081    7.5676 H   0  0  0  0  0  0  0  0  0  0  0  0
  1  2  2  0  0  0  0
  2  3  1  0  0  0  0
  2  4  1  0  0  0  0
  4 11  2  0  0  0  0
  4 22  1  0  0  0  0
  5  6  2  0  0  0  0
  5 10  1  0  0  0  0
  5 22  1  0  0  0  0
  6  7  1  0  0  0  0
  7  8  2  0  0  0  0
  8  9  1  0  0  0  0
  9 10  2  0  0  0  0
 10 11  1  0  0  0  0
 11 12  1  0  0  0  0
 12 13  1  0  0  0  0
 13 14  1  0  0  0  0
 14 15  1  0  0  0  0
 15 16  1  0  0  0  0
 16 17  2  0  0  0  0
 16 21  1  0  0  0  0
 17 18  1  0  0  0  0
 18 19  2  0  0  0  0
 19 20  1  0  0  0  0
 20 21  2  0  0  0  0
  3 23  1  0  0  0  0
  6 24  1  0  0  0  0
  7 25  1  0  0  0  0
  8 26  1  0  0  0  0
  9 27  1  0  0  0  0
 12 28  1  0  0  0  0
 12 29  1  0  0  0  0
 13 30  1  0  0  0  0
 13 31  1  0  0  0  0
 14 32  1  0  0  0  0
 14 33  1  0  0  0  0
 17 34  1  0  0  0  0
 18 35  1  0  0  0  0
 19 36  1  0  0  0  0
 20 37  1  0  0  0  0
 21 38  1  0  0  0  0
 22 39  1  0  0  0  0
M  END
> <r_user_dG.exp>
-6.11639066902356

$$$$
27
  -OEChem-05192314073D
 Structure written by MMmdl.
 39 41  0     1  0  0  0  0  0999 V2000
    3.5620  -47.7655    6.2857 O   0  0  0  0  0  0  0  0  0  0  0  0
    3.0106  -48.7677    6.7913 C   0  0  0  0  0  0  0  0  0  0  0  0
    3.6267  -49.5212    7.5837 O   0  0  0  0  0  0  0  0  0  0  0  0
    1.5987  -49.0922    6.4610 C   0  0  0  0  0  0  0  0  0  0  0  0
   -0.2460  -50.4444    6.5734 C   0  0  0  0  0  0  0  0  0  0  0  0
   -1.2006  -51.4538    6.8287 C   0  0  0  0  0  0  0  0  0  0  0  0
   -2.4848  -51.3550    6.2582 C   0  0  0  0  0  0  0  0  0  0  0  0
   -2.8075  -50.2415    5.4534 C   0  0  0  0  0  0  0  0  0  0  0  0
   -1.8538  -49.2332    5.2139 C   0  0  0  0  0  0  0  0  0  0  0  0
   -0.5510  -49.3043    5.7662 C   0  0  0  0  0  0  0  0  0  0  0  0
    0.6244  -48.4626    5.7171 C   0  0  3  0  0  0  0  0  0  0  0  0
    0.7436  -47.1491    4.9892 C   0  0  0  0  0  0  0  0  0  0  0  0
    0.8629  -45.9369    5.9353 C   0  0  0  0  0  0  0  0  0  0  0  0
   -0.3435  -45.7461    6.8598 C   0  0  0  0  0  0  0  0  0  0  0  0
   -1.4738  -45.3700    6.0783 O   0  0  0  0  0  0  0  0  0  0  0  0
   -2.6659  -45.1791    6.7323 C   0  0  0  0  0  0  0  0  0  0  0  0
   -2.8936  -45.5089    8.0957 C   0  0  0  0  0  0  0  0  0  0  0  0
   -4.1486  -45.2841    8.6877 C   0  0  0  0  0  0  0  0  0  0  0  0
   -5.1945  -44.7219    7.9306 C   0  0  0  0  0  0  0  0  0  0  0  0
   -4.9832  -44.3904    6.5801 C   0  0  0  0  0  0  0  0  0  0  0  0
   -3.7285  -44.6254    5.9884 C   0  0  0  0  0  0  0  0  0  0  0  0
    1.0676  -50.2717    6.9802 N   0  0  0  0  0  0  0  0  0  0  0  0
    4.5121  -49.1987    7.7042 H   0  0  0  0  0  0  0  0  0  0  0  0
   -0.9477  -52.2952    7.4567 H   0  0  0  0  0  0  0  0  0  0  0  0
   -3.2186  -52.1273    6.4358 H   0  0  0  0  0  0  0  0  0  0  0  0
   -3.7927  -50.1620    5.0181 H   0  0  0  0  0  0  0  0  0  0  0  0
   -2.1211  -48.3884    4.5965 H   0  0  0  0  0  0  0  0  0  0  0  0
    0.9677  -48.9934    4.8169 H   0  0  0  0  0  0  0  0  0  0  0  0
    1.6388  -47.1835    4.3509 H   0  0  0  0  0  0  0  0  0  0  0  0
   -0.1496  -47.0155    4.3612 H   0  0  0  0  0  0  0  0  0  0  0  0
    1.7587  -46.0721    6.5592 H   0  0  0  0  0  0  0  0  0  0  0  0
    0.9760  -45.0302    5.3229 H   0  0  0  0  0  0  0  0  0  0  0  0
   -0.5566  -46.6879    7.3866 H   0  0  0  0  0  0  0  0  0  0  0  0
   -0.1240  -44.9569    7.5939 H   0  0  0  0  0  0  0  0  0  0  0  0
   -2.0944  -45.9365    8.6829 H   0  0  0  0  0  0  0  0  0  0  0  0
   -4.3108  -45.5427    9.7237 H   0  0  0  0  0  0  0  0  0  0  0  0
   -6.1576  -44.5455    8.3863 H   0  0  0  0  0  0  0  0  0  0  0  0
   -5.7828  -43.9562    5.9983 H   0  0  0  0  0  0  0  0  0  0  0  0
   -3.5767  -44.3779    4.9482 H   0  0  0  0  0  0  0  0  0  0  0  0
  1  2  2  0  0  0  0
  2  3  1  0  0  0  0
  2  4  1  0  0  0  0
  4 11  1  0  0  0  0
  4 22  2  0  0  0  0
  5  6  2  0  0  0  0
  5 10  1  0  0  0  0
  5 22  1  0  0  0  0
  6  7  1  0  0  0  0
  7  8  2  0  0  0  0
  8  9  1  0  0  0  0
  9 10  2  0  0  0  0
 10 11  1  0  0  0  0
 11 12  1  0  0  0  0
 12 13  1  0  0  0  0
 13 14  1  0  0  0  0
 14 15  1  0  0  0  0
 15 16  1  0  0  0  0
 16 17  2  0  0  0  0
 16 21  1  0  0  0  0
 17 18  1  0  0  0  0
 18 19  2  0  0  0  0
 19 20  1  0  0  0  0
 20 21  2  0  0  0  0
  3 23  1  0  0  0  0
  6 24  1  0  0  0  0
  7 25  1  0  0  0  0
  8 26  1  0  0  0  0
  9 27  1  0  0  0  0
 11 28  1  0  0  0  0
 12 29  1  0  0  0  0
 12 30  1  0  0  0  0
 13 31  1  0  0  0  0
 13 32  1  0  0  0  0
 14 33  1  0  0  0  0
 14 34  1  0  0  0  0
 17 35  1  0  0  0  0
 18 36  1  0  0  0  0
 19 37  1  0  0  0  0
 20 38  1  0  0  0  0
 21 39  1  0  0  0  0
M  END
> <r_user_dG.exp>
-6.11639066902356

$$$$
27
  -OEChem-05192314073D
 Structure written by MMmdl.
 39 41  0     1  0  0  0  0  0999 V2000
    3.5620  -47.7655    6.2857 O   0  0  0  0  0  0  0  0  0  0  0  0
    3.0106  -48.7677    6.7913 C   0  0  0  0  0  0  0  0  0  0  0  0
    3.6267  -49.5212    7.5837 O   0  0  0  0  0  0  0  0  0  0  0  0
    1.5987  -49.0922    6.4610 C   0  0  3  0  0  0  0  0  0  0  0  0
   -0.2460  -50.4444    6.5734 C   0  0  0  0  0  0  0  0  0  0  0  0
   -1.2006  -51.4538    6.8287 C   0  0  0  0  0  0  0  0  0  0  0  0
   -2.4848  -51.3550    6.2582 C   0  0  0  0  0  0  0  0  0  0  0  0
   -2.8075  -50.2415    5.4534 C   0  0  0  0  0  0  0  0  0  0  0  0
   -1.8538  -49.2332    5.2139 C   0  0  0  0  0  0  0  0  0  0  0  0
   -0.5510  -49.3043    5.7662 C   0  0  0  0  0  0  0  0  0  0  0  0
    0.6244  -48.4626    5.7171 C   0  0  0  0  0  0  0  0  0  0  0  0
    0.7436  -47.1491    4.9892 C   0  0  0  0  0  0  0  0  0  0  0  0
    0.8629  -45.9369    5.9353 C   0  0  0  0  0  0  0  0  0  0  0  0
   -0.3435  -45.7461    6.8598 C   0  0  0  0  0  0  0  0  0  0  0  0
   -1.4738  -45.3700    6.0783 O   0  0  0  0  0  0  0  0  0  0  0  0
   -2.6659  -45.1791    6.7323 C   0  0  0  0  0  0  0  0  0  0  0  0
   -2.8936  -45.5089    8.0957 C   0  0  0  0  0  0  0  0  0  0  0  0
   -4.1486  -45.2841    8.6877 C   0  0  0  0  0  0  0  0  0  0  0  0
   -5.1945  -44.7219    7.9306 C   0  0  0  0  0  0  0  0  0  0  0  0
   -4.9832  -44.3904    6.5801 C   0  0  0  0  0  0  0  0  0  0  0  0
   -3.7285  -44.6254    5.9884 C   0  0  0  0  0  0  0  0  0  0  0  0
    1.0676  -50.2717    6.9802 N   0  0  0  0  0  0  0  0  0  0  0  0
    4.5121  -49.1987    7.7042 H   0  0  0  0  0  0  0  0  0  0  0  0
    1.9325  -49.6360    5.5650 H   0  0  0  0  0  0  0  0  0  0  0  0
   -0.9477  -52.2952    7.4567 H   0  0  0  0  0  0  0  0  0  0  0  0
   -3.2186  -52.1273    6.4358 H   0  0  0  0  0  0  0  0  0  0  0  0
   -3.7927  -50.1620    5.0181 H   0  0  0  0  0  0  0  0  0  0  0  0
   -2.1211  -48.3884    4.5965 H   0  0  0  0  0  0  0  0  0  0  0  0
    1.6388  -47.1835    4.3509 H   0  0  0  0  0  0  0  0  0  0  0  0
   -0.1496  -47.0155    4.3612 H   0  0  0  0  0  0  0  0  0  0  0  0
    1.7587  -46.0721    6.5592 H   0  0  0  0  0  0  0  0  0  0  0  0
    0.9760  -45.0302    5.3229 H   0  0  0  0  0  0  0  0  0  0  0  0
   -0.5566  -46.6879    7.3866 H   0  0  0  0  0  0  0  0  0  0  0  0
   -0.1240  -44.9569    7.5939 H   0  0  0  0  0  0  0  0  0  0  0  0
   -2.0944  -45.9365    8.6829 H   0  0  0  0  0  0  0  0  0  0  0  0
   -4.3108  -45.5427    9.7237 H   0  0  0  0  0  0  0  0  0  0  0  0
   -6.1576  -44.5455    8.3863 H   0  0  0  0  0  0  0  0  0  0  0  0
   -5.7828  -43.9562    5.9983 H   0  0  0  0  0  0  0  0  0  0  0  0
   -3.5767  -44.3779    4.9482 H   0  0  0  0  0  0  0  0  0  0  0  0
  1  2  2  0  0  0  0
  2  3  1  0  0  0  0
  2  4  1  0  0  0  0
  4 11  1  0  0  0  0
  4 22  1  0  0  0  0
  5  6  1  0  0  0  0
  5 10  1  0  0  0  0
  5 22  2  0  0  0  0
  6  7  2  0  0  0  0
  7  8  1  0  0  0  0
  8  9  2  0  0  0  0
  9 10  1  0  0  0  0
 10 11  2  0  0  0  0
 11 12  1  0  0  0  0
 12 13  1  0  0  0  0
 13 14  1  0  0  0  0
 14 15  1  0  0  0  0
 15 16  1  0  0  0  0
 16 17  2  0  0  0  0
 16 21  1  0  0  0  0
 17 18  1  0  0  0  0
 18 19  2  0  0  0  0
 19 20  1  0  0  0  0
 20 21  2  0  0  0  0
  3 23  1  0  0  0  0
  4 24  1  0  0  0  0
  6 25  1  0  0  0  0
  7 26  1  0  0  0  0
  8 27  1  0  0  0  0
  9 28  1  0  0  0  0
 12 29  1  0  0  0  0
 12 30  1  0  0  0  0
 13 31  1  0  0  0  0
 13 32  1  0  0  0  0
 14 33  1  0  0  0  0
 14 34  1  0  0  0  0
 17 35  1  0  0  0  0
 18 36  1  0  0  0  0
 19 37  1  0  0  0  0
 20 38  1  0  0  0  0
 21 39  1  0  0  0  0
M  END
> <r_user_dG.exp>
-6.11639066902356

$$$$
27
  -OEChem-05192314073D
 Structure written by MMmdl.
 39 41  0     1  0  0  0  0  0999 V2000
    3.5620  -47.7655    6.2857 O   0  0  0  0  0  0  0  0  0  0  0  0
    3.0106  -48.7677    6.7913 C   0  0  0  0  0  0  0  0  0  0  0  0
    3.6267  -49.5212    7.5837 O   0  0  0  0  0  0  0  0  0  0  0  0
    1.5987  -49.0922    6.4610 C   0  0  0  0  0  0  0  0  0  0  0  0
   -0.2460  -50.4444    6.5734 C   0  0  0  0  0  0  0  0  0  0  0  0
   -1.2006  -51.4538    6.8287 C   0  0  0  0  0  0  0  0  0  0  0  0
   -2.4848  -51.3550    6.2582 C   0  0  0  0  0  0  0  0  0  0  0  0
   -2.8075  -50.2415    5.4534 C   0  0  0  0  0  0  0  0  0  0  0  0
   -1.8538  -49.2332    5.2139 C   0  0  0  0  0  0  0  0  0  0  0  0
   -0.5510  -49.3043    5.7662 C   0  0  3  0  0  0  0  0  0  0  0  0
    0.6244  -48.4626    5.7171 C   0  0  0  0  0  0  0  0  0  0  0  0
    0.7436  -47.1491    4.9892 C   0  0  0  0  0  0  0  0  0  0  0  0
    0.8629  -45.9369    5.9353 C   0  0  0  0  0  0  0  0  0  0  0  0
   -0.3435  -45.7461    6.8598 C   0  0  0  0  0  0  0  0  0  0  0  0
   -1.4738  -45.3700    6.0783 O   0  0  0  0  0  0  0  0  0  0  0  0
   -2.6659  -45.1791    6.7323 C   0  0  0  0  0  0  0  0  0  0  0  0
   -2.8936  -45.5089    8.0957 C   0  0  0  0  0  0  0  0  0  0  0  0
   -4.1486  -45.2841    8.6877 C   0  0  0  0  0  0  0  0  0  0  0  0
   -5.1945  -44.7219    7.9306 C   0  0  0  0  0  0  0  0  0  0  0  0
   -4.9832  -44.3904    6.5801 C   0  0  0  0  0  0  0  0  0  0  0  0
   -3.7285  -44.6254    5.9884 C   0  0  0  0  0  0  0  0  0  0  0  0
    1.0676  -50.2717    6.9802 N   0  0  0  0  0  0  0  0  0  0  0  0
    4.5121  -49.1987    7.7042 H   0  0  0  0  0  0  0  0  0  0  0  0
   -0.9477  -52.2952    7.4567 H   0  0  0  0  0  0  0  0  0  0  0  0
   -3.2186  -52.1273    6.4358 H   0  0  0  0  0  0  0  0  0  0  0  0
   -3.7927  -50.1620    5.0181 H   0  0  0  0  0  0  0  0  0  0  0  0
   -2.1211  -48.3884    4.5965 H   0  0  0  0  0  0  0  0  0  0  0  0
   -0.9000  -48.7652    6.6592 H   0  0  0  0  0  0  0  0  0  0  0  0
    1.6388  -47.1835    4.3509 H   0  0  0  0  0  0  0  0  0  0  0  0
   -0.1496  -47.0155    4.3612 H   0  0  0  0  0  0  0  0  0  0  0  0
    1.7587  -46.0721    6.5592 H   0  0  0  0  0  0  0  0  0  0  0  0
    0.9760  -45.0302    5.3229 H   0  0  0  0  0  0  0  0  0  0  0  0
   -0.5566  -46.6879    7.3866 H   0  0  0  0  0  0  0  0  0  0  0  0
   -0.1240  -44.9569    7.5939 H   0  0  0  0  0  0  0  0  0  0  0  0
   -2.0944  -45.9365    8.6829 H   0  0  0  0  0  0  0  0  0  0  0  0
   -4.3108  -45.5427    9.7237 H   0  0  0  0  0  0  0  0  0  0  0  0
   -6.1576  -44.5455    8.3863 H   0  0  0  0  0  0  0  0  0  0  0  0
   -5.7828  -43.9562    5.9983 H   0  0  0  0  0  0  0  0  0  0  0  0
   -3.5767  -44.3779    4.9482 H   0  0  0  0  0  0  0  0  0  0  0  0
  1  2  2  0  0  0  0
  2  3  1  0  0  0  0
  2  4  1  0  0  0  0
  4 11  2  0  0  0  0
  4 22  1  0  0  0  0
  5  6  1  0  0  0  0
  5 10  1  0  0  0  0
  5 22  2  0  0  0  0
  6  7  2  0  0  0  0
  7  8  1  0  0  0  0
  8  9  2  0  0  0  0
  9 10  1  0  0  0  0
 10 11  1  0  0  0  0
 11 12  1  0  0  0  0
 12 13  1  0  0  0  0
 13 14  1  0  0  0  0
 14 15  1  0  0  0  0
 15 16  1  0  0  0  0
 16 17  2  0  0  0  0
 16 21  1  0  0  0  0
 17 18  1  0  0  0  0
 18 19  2  0  0  0  0
 19 20  1  0  0  0  0
 20 21  2  0  0  0  0
  3 23  1  0  0  0  0
  6 24  1  0  0  0  0
  7 25  1  0  0  0  0
  8 26  1  0  0  0  0
  9 27  1  0  0  0  0
 10 28  1  0  0  0  0
 12 29  1  0  0  0  0
 12 30  1  0  0  0  0
 13 31  1  0  0  0  0
 13 32  1  0  0  0  0
 14 33  1  0  0  0  0
 14 34  1  0  0  0  0
 17 35  1  0  0  0  0
 18 36  1  0  0  0  0
 19 37  1  0  0  0  0
 20 38  1  0  0  0  0
 21 39  1  0  0  0  0
M  END
> <r_user_dG.exp>
-6.11639066902356

$$$$
27
  -OEChem-05192314073D
 Structure written by MMmdl.
 39 41  0     1  0  0  0  0  0999 V2000
    3.5620  -47.7655    6.2857 O   0  0  0  0  0  0  0  0  0  0  0  0
    3.0106  -48.7677    6.7913 C   0  0  0  0  0  0  0  0  0  0  0  0
    3.6267  -49.5212    7.5837 O   0  0  0  0  0  0  0  0  0  0  0  0
    1.5987  -49.0922    6.4610 C   0  0  0  0  0  0  0  0  0  0  0  0
   -0.2460  -50.4444    6.5734 C   0  0  3  0  0  0  0  0  0  0  0  0
   -1.2006  -51.4538    6.8287 C   0  0  0  0  0  0  0  0  0  0  0  0
   -2.4848  -51.3550    6.2582 C   0  0  0  0  0  0  0  0  0  0  0  0
   -2.8075  -50.2415    5.4534 C   0  0  0  0  0  0  0  0  0  0  0  0
   -1.8538  -49.2332    5.2139 C   0  0  0  0  0  0  0  0  0  0  0  0
   -0.5510  -49.3043    5.7662 C   0  0  0  0  0  0  0  0  0  0  0  0
    0.6244  -48.4626    5.7171 C   0  0  0  0  0  0  0  0  0  0  0  0
    0.7436  -47.1491    4.9892 C   0  0  0  0  0  0  0  0  0  0  0  0
    0.8629  -45.9369    5.9353 C   0  0  0  0  0  0  0  0  0  0  0  0
   -0.3435  -45.7461    6.8598 C   0  0  0  0  0  0  0  0  0  0  0  0
   -1.4738  -45.3700    6.0783 O   0  0  0  0  0  0  0  0  0  0  0  0
   -2.6659  -45.1791    6.7323 C   0  0  0  0  0  0  0  0  0  0  0  0
   -2.8936  -45.5089    8.0957 C   0  0  0  0  0  0  0  0  0  0  0  0
   -4.1486  -45.2841    8.6877 C   0  0  0  0  0  0  0  0  0  0  0  0
   -5.1945  -44.7219    7.9306 C   0  0  0  0  0  0  0  0  0  0  0  0
   -4.9832  -44.3904    6.5801 C   0  0  0  0  0  0  0  0  0  0  0  0
   -3.7285  -44.6254    5.9884 C   0  0  0  0  0  0  0  0  0  0  0  0
    1.0676  -50.2717    6.9802 N   0  0  0  0  0  0  0  0  0  0  0  0
    4.5121  -49.1987    7.7042 H   0  0  0  0  0  0  0  0  0  0  0  0
    0.0974  -50.9890    5.6815 H   0  0  0  0  0  0  0  0  0  0  0  0
   -0.9477  -52.2952    7.4567 H   0  0  0  0  0  0  0  0  0  0  0  0
   -3.2186  -52.1273    6.4358 H   0  0  0  0  0  0  0  0  0  0  0  0
   -3.7927  -50.1620    5.0181 H   0  0  0  0  0  0  0  0  0  0  0  0
   -2.1211  -48.3884    4.5965 H   0  0  0  0  0  0  0  0  0  0  0  0
    1.6388  -47.1835    4.3509 H   0  0  0  0  0  0  0  0  0  0  0  0
   -0.1496  -47.0155    4.3612 H   0  0  0  0  0  0  0  0  0  0  0  0
    1.7587  -46.0721    6.5592 H   0  0  0  0  0  0  0  0  0  0  0  0
    0.9760  -45.0302    5.3229 H   0  0  0  0  0  0  0  0  0  0  0  0
   -0.5566  -46.6879    7.3866 H   0  0  0  0  0  0  0  0  0  0  0  0
   -0.1240  -44.9569    7.5939 H   0  0  0  0  0  0  0  0  0  0  0  0
   -2.0944  -45.9365    8.6829 H   0  0  0  0  0  0  0  0  0  0  0  0
   -4.3108  -45.5427    9.7237 H   0  0  0  0  0  0  0  0  0  0  0  0
   -6.1576  -44.5455    8.3863 H   0  0  0  0  0  0  0  0  0  0  0  0
   -5.7828  -43.9562    5.9983 H   0  0  0  0  0  0  0  0  0  0  0  0
   -3.5767  -44.3779    4.9482 H   0  0  0  0  0  0  0  0  0  0  0  0
  1  2  2  0  0  0  0
  2  3  1  0  0  0  0
  2  4  1  0  0  0  0
  4 11  1  0  0  0  0
  4 22  2  0  0  0  0
  5  6  1  0  0  0  0
  5 10  1  0  0  0  0
  5 22  1  0  0  0  0
  6  7  2  0  0  0  0
  7  8  1  0  0  0  0
  8  9  2  0  0  0  0
  9 10  1  0  0  0  0
 10 11  2  0  0  0  0
 11 12  1  0  0  0  0
 12 13  1  0  0  0  0
 13 14  1  0  0  0  0
 14 15  1  0  0  0  0
 15 16  1  0  0  0  0
 16 17  2  0  0  0  0
 16 21  1  0  0  0  0
 17 18  1  0  0  0  0
 18 19  2  0  0  0  0
 19 20  1  0  0  0  0
 20 21  2  0  0  0  0
  3 23  1  0  0  0  0
  5 24  1  0  0  0  0
  6 25  1  0  0  0  0
  7 26  1  0  0  0  0
  8 27  1  0  0  0  0
  9 28  1  0  0  0  0
 12 29  1  0  0  0  0
 12 30  1  0  0  0  0
 13 31  1  0  0  0  0
 13 32  1  0  0  0  0
 14 33  1  0  0  0  0
 14 34  1  0  0  0  0
 17 35  1  0  0  0  0
 18 36  1  0  0  0  0
 19 37  1  0  0  0  0
 20 38  1  0  0  0  0
 21 39  1  0  0  0  0
M  END
> <r_user_dG.exp>
-6.11639066902356

$$$$
27
  -OEChem-05192314073D
 Structure written by MMmdl.
 39 41  0     0  0  0  0  0  0999 V2000
    3.5620  -47.7655    6.2857 O   0  0  0  0  0  0  0  0  0  0  0  0
    3.0106  -48.7677    6.7913 C   0  0  0  0  0  0  0  0  0  0  0  0
    3.6267  -49.5212    7.5837 O   0  0  0  0  0  0  0  0  0  0  0  0
    1.5987  -49.0922    6.4610 C   0  0  0  0  0  0  0  0  0  0  0  0
   -0.2460  -50.4444    6.5734 C   0  0  0  0  0  0  0  0  0  0  0  0
   -1.2006  -51.4538    6.8287 C   0  0  0  0  0  0  0  0  0  0  0  0
   -2.4848  -51.3550    6.2582 C   0  0  0  0  0  0  0  0  0  0  0  0
   -2.8075  -50.2415    5.4534 C   0  0  0  0  0  0  0  0  0  0  0  0
   -1.8538  -49.2332    5.2139 C   0  0  0  0  0  0  0  0  0  0  0  0
   -0.5510  -49.3043    5.7662 C   0  0  0  0  0  0  0  0  0  0  0  0
    0.6244  -48.4626    5.7171 C   0  0  0  0  0  0  0  0  0  0  0  0
    0.7436  -47.1491    4.9892 C   0  0  0  0  0  0  0  0  0  0  0  0
    0.8629  -45.9369    5.9353 C   0  0  0  0  0  0  0  0  0  0  0  0
   -0.3435  -45.7461    6.8598 C   0  0  0  0  0  0  0  0  0  0  0  0
   -1.4738  -45.3700    6.0783 O   0  0  0  0  0  0  0  0  0  0  0  0
   -2.6659  -45.1791    6.7323 C   0  0  0  0  0  0  0  0  0  0  0  0
   -2.8936  -45.5089    8.0957 C   0  0  0  0  0  0  0  0  0  0  0  0
   -4.1486  -45.2841    8.6877 C   0  0  0  0  0  0  0  0  0  0  0  0
   -5.1945  -44.7219    7.9306 C   0  0  0  0  0  0  0  0  0  0  0  0
   -4.9832  -44.3904    6.5801 C   0  0  0  0  0  0  0  0  0  0  0  0
   -3.7285  -44.6254    5.9884 C   0  0  0  0  0  0  0  0  0  0  0  0
    1.0676  -50.2717    6.9802 N   0  0  0  0  0  0  0  0  0  0  0  0
    4.5121  -49.1987    7.7042 H   0  0  0  0  0  0  0  0  0  0  0  0
   -0.9477  -52.2952    7.4567 H   0  0  0  0  0  0  0  0  0  0  0  0
   -3.2186  -52.1273    6.4358 H   0  0  0  0  0  0  0  0  0  0  0  0
   -3.1012  -50.6377    4.4701 H   0  0  0  0  0  0  0  0  0  0  0  0
   -3.6724  -49.7519    5.9247 H   0  0  0  0  0  0  0  0  0  0  0  0
   -2.1211  -48.3884    4.5965 H   0  0  0  0  0  0  0  0  0  0  0  0
    1.6388  -47.1835    4.3509 H   0  0  0  0  0  0  0  0  0  0  0  0
   -0.1496  -47.0155    4.3612 H   0  0  0  0  0  0  0  0  0  0  0  0
    1.7587  -46.0721    6.5592 H   0  0  0  0  0  0  0  0  0  0  0  0
    0.9760  -45.0302    5.3229 H   0  0  0  0  0  0  0  0  0  0  0  0
   -0.5566  -46.6879    7.3866 H   0  0  0  0  0  0  0  0  0  0  0  0
   -0.1240  -44.9569    7.5939 H   0  0  0  0  0  0  0  0  0  0  0  0
   -2.0944  -45.9365    8.6829 H   0  0  0  0  0  0  0  0  0  0  0  0
   -4.3108  -45.5427    9.7237 H   0  0  0  0  0  0  0  0  0  0  0  0
   -6.1576  -44.5455    8.3863 H   0  0  0  0  0  0  0  0  0  0  0  0
   -5.7828  -43.9562    5.9983 H   0  0  0  0  0  0  0  0  0  0  0  0
   -3.5767  -44.3779    4.9482 H   0  0  0  0  0  0  0  0  0  0  0  0
  1  2  2  0  0  0  0
  2  3  1  0  0  0  0
  2  4  1  0  0  0  0
  4 11  2  0  0  0  0
  4 22  1  0  0  0  0
  5  6  1  0  0  0  0
  5 10  1  0  0  0  0
  5 22  2  0  0  0  0
  6  7  2  0  0  0  0
  7  8  1  0  0  0  0
  8  9  1  0  0  0  0
  9 10  2  0  0  0  0
 10 11  1  0  0  0  0
 11 12  1  0  0  0  0
 12 13  1  0  0  0  0
 13 14  1  0  0  0  0
 14 15  1  0  0  0  0
 15 16  1  0  0  0  0
 16 17  2  0  0  0  0
 16 21  1  0  0  0  0
 17 18  1  0  0  0  0
 18 19  2  0  0  0  0
 19 20  1  0  0  0  0
 20 21  2  0  0  0  0
  3 23  1  0  0  0  0
  6 24  1  0  0  0  0
  7 25  1  0  0  0  0
  8 26  1  0  0  0  0
  8 27  1  0  0  0  0
  9 28  1  0  0  0  0
 12 29  1  0  0  0  0
 12 30  1  0  0  0  0
 13 31  1  0  0  0  0
 13 32  1  0  0  0  0
 14 33  1  0  0  0  0
 14 34  1  0  0  0  0
 17 35  1  0  0  0  0
 18 36  1  0  0  0  0
 19 37  1  0  0  0  0
 20 38  1  0  0  0  0
 21 39  1  0  0  0  0
M  END
> <r_user_dG.exp>
-6.11639066902356

$$$$
27
  -OEChem-05192314073D
 Structure written by MMmdl.
 39 41  0     0  0  0  0  0  0999 V2000
    3.5620  -47.7655    6.2857 O   0  0  0  0  0  0  0  0  0  0  0  0
    3.0106  -48.7677    6.7913 C   0  0  0  0  0  0  0  0  0  0  0  0
    3.6267  -49.5212    7.5837 O   0  0  0  0  0  0  0  0  0  0  0  0
    1.5987  -49.0922    6.4610 C   0  0  0  0  0  0  0  0  0  0  0  0
   -0.2460  -50.4444    6.5734 C   0  0  0  0  0  0  0  0  0  0  0  0
   -1.2006  -51.4538    6.8287 C   0  0  0  0  0  0  0  0  0  0  0  0
   -2.4848  -51.3550    6.2582 C   0  0  0  0  0  0  0  0  0  0  0  0
   -2.8075  -50.2415    5.4534 C   0  0  0  0  0  0  0  0  0  0  0  0
   -1.8538  -49.2332    5.2139 C   0  0  0  0  0  0  0  0  0  0  0  0
   -0.5510  -49.3043    5.7662 C   0  0  0  0  0  0  0  0  0  0  0  0
    0.6244  -48.4626    5.7171 C   0  0  0  0  0  0  0  0  0  0  0  0
    0.7436  -47.1491    4.9892 C   0  0  0  0  0  0  0  0  0  0  0  0
    0.8629  -45.9369    5.9353 C   0  0  0  0  0  0  0  0  0  0  0  0
   -0.3435  -45.7461    6.8598 C   0  0  0  0  0  0  0  0  0  0  0  0
   -1.4738  -45.3700    6.0783 O   0  0  0  0  0  0  0  0  0  0  0  0
   -2.6659  -45.1791    6.7323 C   0  0  0  0  0  0  0  0  0  0  0  0
   -2.8936  -45.5089    8.0957 C   0  0  0  0  0  0  0  0  0  0  0  0
   -4.1486  -45.2841    8.6877 C   0  0  0  0  0  0  0  0  0  0  0  0
   -5.1945  -44.7219    7.9306 C   0  0  0  0  0  0  0  0  0  0  0  0
   -4.9832  -44.3904    6.5801 C   0  0  0  0  0  0  0  0  0  0  0  0
   -3.7285  -44.6254    5.9884 C   0  0  0  0  0  0  0  0  0  0  0  0
    1.0676  -50.2717    6.9802 N   0  0  0  0  0  0  0  0  0  0  0  0
    4.5121  -49.1987    7.7042 H   0  0  0  0  0  0  0  0  0  0  0  0
   -0.9477  -52.2952    7.4567 H   0  0  0  0  0  0  0  0  0  0  0  0
   -2.6274  -52.2507    5.6358 H   0  0  0  0  0  0  0  0  0  0  0  0
   -3.2052  -51.3676    7.0894 H   0  0  0  0  0  0  0  0  0  0  0  0
   -3.7927  -50.1620    5.0181 H   0  0  0  0  0  0  0  0  0  0  0  0
   -2.1211  -48.3884    4.5965 H   0  0  0  0  0  0  0  0  0  0  0  0
    1.6388  -47.1835    4.3509 H   0  0  0  0  0  0  0  0  0  0  0  0
   -0.1496  -47.0155    4.3612 H   0  0  0  0  0  0  0  0  0  0  0  0
    1.7587  -46.0721    6.5592 H   0  0  0  0  0  0  0  0  0  0  0  0
    0.9760  -45.0302    5.3229 H   0  0  0  0  0  0  0  0  0  0  0  0
   -0.5566  -46.6879    7.3866 H   0  0  0  0  0  0  0  0  0  0  0  0
   -0.1240  -44.9569    7.5939 H   0  0  0  0  0  0  0  0  0  0  0  0
   -2.0944  -45.9365    8.6829 H   0  0  0  0  0  0  0  0  0  0  0  0
   -4.3108  -45.5427    9.7237 H   0  0  0  0  0  0  0  0  0  0  0  0
   -6.1576  -44.5455    8.3863 H   0  0  0  0  0  0  0  0  0  0  0  0
   -5.7828  -43.9562    5.9983 H   0  0  0  0  0  0  0  0  0  0  0  0
   -3.5767  -44.3779    4.9482 H   0  0  0  0  0  0  0  0  0  0  0  0
  1  2  2  0  0  0  0
  2  3  1  0  0  0  0
  2  4  1  0  0  0  0
  4 11  1  0  0  0  0
  4 22  2  0  0  0  0
  5  6  2  0  0  0  0
  5 10  1  0  0  0  0
  5 22  1  0  0  0  0
  6  7  1  0  0  0  0
  7  8  1  0  0  0  0
  8  9  2  0  0  0  0
  9 10  1  0  0  0  0
 10 11  2  0  0  0  0
 11 12  1  0  0  0  0
 12 13  1  0  0  0  0
 13 14  1  0  0  0  0
 14 15  1  0  0  0  0
 15 16  1  0  0  0  0
 16 17  2  0  0  0  0
 16 21  1  0  0  0  0
 17 18  1  0  0  0  0
 18 19  2  0  0  0  0
 19 20  1  0  0  0  0
 20 21  2  0  0  0  0
  3 23  1  0  0  0  0
  6 24  1  0  0  0  0
  7 25  1  0  0  0  0
  7 26  1  0  0  0  0
  8 27  1  0  0  0  0
  9 28  1  0  0  0  0
 12 29  1  0  0  0  0
 12 30  1  0  0  0  0
 13 31  1  0  0  0  0
 13 32  1  0  0  0  0
 14 33  1  0  0  0  0
 14 34  1  0  0  0  0
 17 35  1  0  0  0  0
 18 36  1  0  0  0  0
 19 37  1  0  0  0  0
 20 38  1  0  0  0  0
 21 39  1  0  0  0  0
M  END
> <r_user_dG.exp>
-6.11639066902356

$$$$
27
  -OEChem-05192314073D
 Structure written by MMmdl.
 39 41  0     0  0  0  0  0  0999 V2000
    3.5620  -47.7655    6.2857 O   0  0  0  0  0  0  0  0  0  0  0  0
    3.0106  -48.7677    6.7913 C   0  0  0  0  0  0  0  0  0  0  0  0
    3.6267  -49.5212    7.5837 O   0  0  0  0  0  0  0  0  0  0  0  0
    1.5987  -49.0922    6.4610 C   0  0  0  0  0  0  0  0  0  0  0  0
   -0.2460  -50.4444    6.5734 C   0  0  0  0  0  0  0  0  0  0  0  0
   -1.2006  -51.4538    6.8287 C   0  0  0  0  0  0  0  0  0  0  0  0
   -2.4848  -51.3550    6.2582 C   0  0  0  0  0  0  0  0  0  0  0  0
   -2.8075  -50.2415    5.4534 C   0  0  0  0  0  0  0  0  0  0  0  0
   -1.8538  -49.2332    5.2139 C   0  0  0  0  0  0  0  0  0  0  0  0
   -0.5510  -49.3043    5.7662 C   0  0  0  0  0  0  0  0  0  0  0  0
    0.6244  -48.4626    5.7171 C   0  0  0  0  0  0  0  0  0  0  0  0
    0.7436  -47.1491    4.9892 C   0  0  0  0  0  0  0  0  0  0  0  0
    0.8629  -45.9369    5.9353 C   0  0  0  0  0  0  0  0  0  0  0  0
   -0.3435  -45.7461    6.8598 C   0  0  0  0  0  0  0  0  0  0  0  0
   -1.4738  -45.3700    6.0783 O   0  0  0  0  0  0  0  0  0  0  0  0
   -2.6659  -45.1791    6.7323 C   0  0  0  0  0  0  0  0  0  0  0  0
   -2.8936  -45.5089    8.0957 C   0  0  0  0  0  0  0  0  0  0  0  0
   -4.1486  -45.2841    8.6877 C   0  0  0  0  0  0  0  0  0  0  0  0
   -5.1945  -44.7219    7.9306 C   0  0  0  0  0  0  0  0  0  0  0  0
   -4.9832  -44.3904    6.5801 C   0  0  0  0  0  0  0  0  0  0  0  0
   -3.7285  -44.6254    5.9884 C   0  0  0  0  0  0  0  0  0  0  0  0
    1.0676  -50.2717    6.9802 N   0  0  0  0  0  0  0  0  0  0  0  0
    4.5121  -49.1987    7.7042 H   0  0  0  0  0  0  0  0  0  0  0  0
   -0.7663  -52.4011    6.4767 H   0  0  0  0  0  0  0  0  0  0  0  0
   -1.3375  -51.4960    7.9193 H   0  0  0  0  0  0  0  0  0  0  0  0
   -3.2186  -52.1273    6.4358 H   0  0  0  0  0  0  0  0  0  0  0  0
   -3.7927  -50.1620    5.0181 H   0  0  0  0  0  0  0  0  0  0  0  0
   -2.1211  -48.3884    4.5965 H   0  0  0  0  0  0  0  0  0  0  0  0
    1.6388  -47.1835    4.3509 H   0  0  0  0  0  0  0  0  0  0  0  0
   -0.1496  -47.0155    4.3612 H   0  0  0  0  0  0  0  0  0  0  0  0
    1.7587  -46.0721    6.5592 H   0  0  0  0  0  0  0  0  0  0  0  0
    0.9760  -45.0302    5.3229 H   0  0  0  0  0  0  0  0  0  0  0  0
   -0.5566  -46.6879    7.3866 H   0  0  0  0  0  0  0  0  0  0  0  0
   -0.1240  -44.9569    7.5939 H   0  0  0  0  0  0  0  0  0  0  0  0
   -2.0944  -45.9365    8.6829 H   0  0  0  0  0  0  0  0  0  0  0  0
   -4.3108  -45.5427    9.7237 H   0  0  0  0  0  0  0  0  0  0  0  0
   -6.1576  -44.5455    8.3863 H   0  0  0  0  0  0  0  0  0  0  0  0
   -5.7828  -43.9562    5.9983 H   0  0  0  0  0  0  0  0  0  0  0  0
   -3.5767  -44.3779    4.9482 H   0  0  0  0  0  0  0  0  0  0  0  0
  1  2  2  0  0  0  0
  2  3  1  0  0  0  0
  2  4  1  0  0  0  0
  4 11  2  0  0  0  0
  4 22  1  0  0  0  0
  5  6  1  0  0  0  0
  5 10  1  0  0  0  0
  5 22  2  0  0  0  0
  6  7  1  0  0  0  0
  7  8  2  0  0  0  0
  8  9  1  0  0  0  0
  9 10  2  0  0  0  0
 10 11  1  0  0  0  0
 11 12  1  0  0  0  0
 12 13  1  0  0  0  0
 13 14  1  0  0  0  0
 14 15  1  0  0  0  0
 15 16  1  0  0  0  0
 16 17  2  0  0  0  0
 16 21  1  0  0  0  0
 17 18  1  0  0  0  0
 18 19  2  0  0  0  0
 19 20  1  0  0  0  0
 20 21  2  0  0  0  0
  3 23  1  0  0  0  0
  6 24  1  0  0  0  0
  6 25  1  0  0  0  0
  7 26  1  0  0  0  0
  8 27  1  0  0  0  0
  9 28  1  0  0  0  0
 12 29  1  0  0  0  0
 12 30  1  0  0  0  0
 13 31  1  0  0  0  0
 13 32  1  0  0  0  0
 14 33  1  0  0  0  0
 14 34  1  0  0  0  0
 17 35  1  0  0  0  0
 18 36  1  0  0  0  0
 19 37  1  0  0  0  0
 20 38  1  0  0  0  0
 21 39  1  0  0  0  0
M  END
> <r_user_dG.exp>
-6.11639066902356

$$$$
27
  -OEChem-05192314073D
 Structure written by MMmdl.
 39 41  0     0  0  0  0  0  0999 V2000
    3.5620  -47.7655    6.2857 O   0  0  0  0  0  0  0  0  0  0  0  0
    3.0106  -48.7677    6.7913 C   0  0  0  0  0  0  0  0  0  0  0  0
    3.6267  -49.5212    7.5837 O   0  0  0  0  0  0  0  0  0  0  0  0
    1.5987  -49.0922    6.4610 C   0  0  0  0  0  0  0  0  0  0  0  0
   -0.2460  -50.4444    6.5734 C   0  0  0  0  0  0  0  0  0  0  0  0
   -1.2006  -51.4538    6.8287 C   0  0  0  0  0  0  0  0  0  0  0  0
   -2.4848  -51.3550    6.2582 C   0  0  0  0  0  0  0  0  0  0  0  0
   -2.8075  -50.2415    5.4534 C   0  0  0  0  0  0  0  0  0  0  0  0
   -1.8538  -49.2332    5.2139 C   0  0  0  0  0  0  0  0  0  0  0  0
   -0.5510  -49.3043    5.7662 C   0  0  0  0  0  0  0  0  0  0  0  0
    0.6244  -48.4626    5.7171 C   0  0  0  0  0  0  0  0  0  0  0  0
    0.7436  -47.1491    4.9892 C   0  0  0  0  0  0  0  0  0  0  0  0
    0.8629  -45.9369    5.9353 C   0  0  0  0  0  0  0  0  0  0  0  0
   -0.3435  -45.7461    6.8598 C   0  0  0  0  0  0  0  0  0  0  0  0
   -1.4738  -45.3700    6.0783 O   0  0  0  0  0  0  0  0  0  0  0  0
   -2.6659  -45.1791    6.7323 C   0  0  0  0  0  0  0  0  0  0  0  0
   -2.8936  -45.5089    8.0957 C   0  0  0  0  0  0  0  0  0  0  0  0
   -4.1486  -45.2841    8.6877 C   0  0  0  0  0  0  0  0  0  0  0  0
   -5.1945  -44.7219    7.9306 C   0  0  0  0  0  0  0  0  0  0  0  0
   -4.9832  -44.3904    6.5801 C   0  0  0  0  0  0  0  0  0  0  0  0
   -3.7285  -44.6254    5.9884 C   0  0  0  0  0  0  0  0  0  0  0  0
    1.0676  -50.2717    6.9802 N   0  0  0  0  0  0  0  0  0  0  0  0
    4.5121  -49.1987    7.7042 H   0  0  0  0  0  0  0  0  0  0  0  0
   -0.9477  -52.2952    7.4567 H   0  0  0  0  0  0  0  0  0  0  0  0
   -3.2186  -52.1273    6.4358 H   0  0  0  0  0  0  0  0  0  0  0  0
   -3.7927  -50.1620    5.0181 H   0  0  0  0  0  0  0  0  0  0  0  0
   -1.7264  -49.1785    4.1227 H   0  0  0  0  0  0  0  0  0  0  0  0
   -2.2955  -48.2943    5.5790 H   0  0  0  0  0  0  0  0  0  0  0  0
    1.6388  -47.1835    4.3509 H   0  0  0  0  0  0  0  0  0  0  0  0
   -0.1496  -47.0155    4.3612 H   0  0  0  0  0  0  0  0  0  0  0  0
    1.7587  -46.0721    6.5592 H   0  0  0  0  0  0  0  0  0  0  0  0
    0.9760  -45.0302    5.3229 H   0  0  0  0  0  0  0  0  0  0  0  0
   -0.5566  -46.6879    7.3866 H   0  0  0  0  0  0  0  0  0  0  0  0
   -0.1240  -44.9569    7.5939 H   0  0  0  0  0  0  0  0  0  0  0  0
   -2.0944  -45.9365    8.6829 H   0  0  0  0  0  0  0  0  0  0  0  0
   -4.3108  -45.5427    9.7237 H   0  0  0  0  0  0  0  0  0  0  0  0
   -6.1576  -44.5455    8.3863 H   0  0  0  0  0  0  0  0  0  0  0  0
   -5.7828  -43.9562    5.9983 H   0  0  0  0  0  0  0  0  0  0  0  0
   -3.5767  -44.3779    4.9482 H   0  0  0  0  0  0  0  0  0  0  0  0
  1  2  2  0  0  0  0
  2  3  1  0  0  0  0
  2  4  1  0  0  0  0
  4 11  1  0  0  0  0
  4 22  2  0  0  0  0
  5  6  2  0  0  0  0
  5 10  1  0  0  0  0
  5 22  1  0  0  0  0
  6  7  1  0  0  0  0
  7  8  2  0  0  0  0
  8  9  1  0  0  0  0
  9 10  1  0  0  0  0
 10 11  2  0  0  0  0
 11 12  1  0  0  0  0
 12 13  1  0  0  0  0
 13 14  1  0  0  0  0
 14 15  1  0  0  0  0
 15 16  1  0  0  0  0
 16 17  2  0  0  0  0
 16 21  1  0  0  0  0
 17 18  1  0  0  0  0
 18 19  2  0  0  0  0
 19 20  1  0  0  0  0
 20 21  2  0  0  0  0
  3 23  1  0  0  0  0
  6 24  1  0  0  0  0
  7 25  1  0  0  0  0
  8 26  1  0  0  0  0
  9 27  1  0  0  0  0
  9 28  1  0  0  0  0
 12 29  1  0  0  0  0
 12 30  1  0  0  0  0
 13 31  1  0  0  0  0
 13 32  1  0  0  0  0
 14 33  1  0  0  0  0
 14 34  1  0  0  0  0
 17 35  1  0  0  0  0
 18 36  1  0  0  0  0
 19 37  1  0  0  0  0
 20 38  1  0  0  0  0
 21 39  1  0  0  0  0
M  END
> <r_user_dG.exp>
-6.11639066902356

$$$$
27
  -OEChem-05192314073D
 Structure written by MMmdl.
 39 41  0     0  0  0  0  0  0999 V2000
    3.5620  -47.7655    6.2857 O   0  0  0  0  0  0  0  0  0  0  0  0
    3.0106  -48.7677    6.7913 C   0  0  0  0  0  0  0  0  0  0  0  0
    3.6267  -49.5212    7.5837 O   0  0  0  0  0  0  0  0  0  0  0  0
    1.5987  -49.0922    6.4610 C   0  0  0  0  0  0  0  0  0  0  0  0
   -0.2460  -50.4444    6.5734 C   0  0  0  0  0  0  0  0  0  0  0  0
   -1.2006  -51.4538    6.8287 C   0  0  0  0  0  0  0  0  0  0  0  0
   -2.4848  -51.3550    6.2582 C   0  0  0  0  0  0  0  0  0  0  0  0
   -2.8075  -50.2415    5.4534 C   0  0  0  0  0  0  0  0  0  0  0  0
   -1.8538  -49.2332    5.2139 C   0  0  0  0  0  0  0  0  0  0  0  0
   -0.5510  -49.3043    5.7662 C   0  0  0  0  0  0  0  0  0  0  0  0
    0.6244  -48.4626    5.7171 C   0  0  0  0  0  0  0  0  0  0  0  0
    0.7436  -47.1491    4.9892 C   0  0  0  0  0  0  0  0  0  0  0  0
    0.8629  -45.9369    5.9353 C   0  0  0  0  0  0  0  0  0  0  0  0
   -0.3435  -45.7461    6.8598 C   0  0  0  0  0  0  0  0  0  0  0  0
   -1.4738  -45.3700    6.0783 O   0  0  0  0  0  0  0  0  0  0  0  0
   -2.6659  -45.1791    6.7323 C   0  0  0  0  0  0  0  0  0  0  0  0
   -2.8936  -45.5089    8.0957 C   0  0  0  0  0  0  0  0  0  0  0  0
   -4.1486  -45.2841    8.6877 C   0  0  0  0  0  0  0  0  0  0  0  0
   -5.1945  -44.7219    7.9306 C   0  0  0  0  0  0  0  0  0  0  0  0
   -4.9832  -44.3904    6.5801 C   0  0  0  0  0  0  0  0  0  0  0  0
   -3.7285  -44.6254    5.9884 C   0  0  0  0  0  0  0  0  0  0  0  0
    1.0676  -50.2717    6.9802 N   0  0  0  0  0  0  0  0  0  0  0  0
    2.9469  -47.3188    5.7160 H   0  0  0  0  0  0  0  0  0  0  0  0
    3.0526  -50.2245    7.8636 H   0  0  0  0  0  0  0  0  0  0  0  0
   -0.9477  -52.2952    7.4567 H   0  0  0  0  0  0  0  0  0  0  0  0
   -3.2186  -52.1273    6.4358 H   0  0  0  0  0  0  0  0  0  0  0  0
   -3.7927  -50.1620    5.0181 H   0  0  0  0  0  0  0  0  0  0  0  0
   -2.1211  -48.3884    4.5965 H   0  0  0  0  0  0  0  0  0  0  0  0
    1.6388  -47.1835    4.3509 H   0  0  0  0  0  0  0  0  0  0  0  0
   -0.1496  -47.0155    4.3612 H   0  0  0  0  0  0  0  0  0  0  0  0
    1.7587  -46.0721    6.5592 H   0  0  0  0  0  0  0  0  0  0  0  0
    0.9760  -45.0302    5.3229 H   0  0  0  0  0  0  0  0  0  0  0  0
   -0.5566  -46.6879    7.3866 H   0  0  0  0  0  0  0  0  0  0  0  0
   -0.1240  -44.9569    7.5939 H   0  0  0  0  0  0  0  0  0  0  0  0
   -2.0944  -45.9365    8.6829 H   0  0  0  0  0  0  0  0  0  0  0  0
   -4.3108  -45.5427    9.7237 H   0  0  0  0  0  0  0  0  0  0  0  0
   -6.1576  -44.5455    8.3863 H   0  0  0  0  0  0  0  0  0  0  0  0
   -5.7828  -43.9562    5.9983 H   0  0  0  0  0  0  0  0  0  0  0  0
   -3.5767  -44.3779    4.9482 H   0  0  0  0  0  0  0  0  0  0  0  0
  1  2  1  0  0  0  0
  2  3  1  0  0  0  0
  2  4  2  0  0  0  0
  4 11  1  0  0  0  0
  4 22  1  0  0  0  0
  5  6  1  0  0  0  0
  5 10  1  0  0  0  0
  5 22  2  0  0  0  0
  6  7  2  0  0  0  0
  7  8  1  0  0  0  0
  8  9  2  0  0  0  0
  9 10  1  0  0  0  0
 10 11  2  0  0  0  0
 11 12  1  0  0  0  0
 12 13  1  0  0  0  0
 13 14  1  0  0  0  0
 14 15  1  0  0  0  0
 15 16  1  0  0  0  0
 16 17  2  0  0  0  0
 16 21  1  0  0  0  0
 17 18  1  0  0  0  0
 18 19  2  0  0  0  0
 19 20  1  0  0  0  0
 20 21  2  0  0  0  0
  1 23  1  0  0  0  0
  3 24  1  0  0  0  0
  6 25  1  0  0  0  0
  7 26  1  0  0  0  0
  8 27  1  0  0  0  0
  9 28  1  0  0  0  0
 12 29  1  0  0  0  0
 12 30  1  0  0  0  0
 13 31  1  0  0  0  0
 13 32  1  0  0  0  0
 14 33  1  0  0  0  0
 14 34  1  0  0  0  0
 17 35  1  0  0  0  0
 18 36  1  0  0  0  0
 19 37  1  0  0  0  0
 20 38  1  0  0  0  0
 21 39  1  0  0  0  0
M  END
> <r_user_dG.exp>
-6.11639066902356

$$$$
