48
  -OEChem-05162309453D
 Structure written by MMmdl.
 43 46  0     0  0  0  0  0  0999 V2000
    3.5962  -50.2382    7.2860 O   0  0  0  0  0  0  0  0  0  0  0  0
    2.9915  -49.1832    6.9785 C   0  0  0  0  0  0  0  0  0  0  0  0
    3.5468  -48.0563    6.9856 O   0  0  0  0  0  0  0  0  0  0  0  0
    1.5667  -49.2814    6.6034 C   0  0  0  0  0  0  0  0  0  0  0  0
   -0.3493  -50.4961    6.2933 C   0  0  0  0  0  0  0  0  0  0  0  0
   -1.3483  -51.4866    6.2008 C   0  0  0  0  0  0  0  0  0  0  0  0
   -2.6508  -51.1171    5.7985 C   0  0  0  0  0  0  0  0  0  0  0  0
   -2.9320  -49.7715    5.4886 C   0  0  0  0  0  0  0  0  0  0  0  0
   -1.9224  -48.7928    5.5781 C   0  0  0  0  0  0  0  0  0  0  0  0
   -0.6057  -49.1301    5.9783 C   0  0  0  0  0  0  0  0  0  0  0  0
    0.6128  -48.3833    6.1734 C   0  0  0  0  0  0  0  0  0  0  0  0
    0.8068  -46.9172    5.9622 C   0  0  0  0  0  0  0  0  0  0  0  0
    0.7034  -46.1229    7.2813 C   0  0  0  0  0  0  0  0  0  0  0  0
   -0.7224  -46.0877    7.8568 C   0  0  0  0  0  0  0  0  0  0  0  0
   -1.5391  -45.3745    6.9378 O   0  0  0  0  0  0  0  0  0  0  0  0
   -2.8810  -45.1822    7.1989 C   0  0  0  0  0  0  0  0  0  0  0  0
   -5.6349  -44.5517    7.4221 C   0  0  0  0  0  0  0  0  0  0  0  0
   -4.8882  -44.0528    6.3462 C   0  0  0  0  0  0  0  0  0  0  0  0
   -3.5272  -44.3675    6.2431 C   0  0  0  0  0  0  0  0  0  0  0  0
    0.9807  -50.5349    6.6696 N   0  0  0  0  0  0  0  0  0  0  0  0
   -4.5301  -46.7432   10.1164 C   0  0  0  0  0  0  0  0  0  0  0  0
   -5.5194  -46.0063    9.4887 N   0  0  0  0  0  0  0  0  0  0  0  0
   -5.0107  -45.3807    8.3736 C   0  0  0  0  0  0  0  0  0  0  0  0
   -3.6231  -45.7297    8.3012 C   0  0  0  0  0  0  0  0  0  0  0  0
   -3.3547  -46.5895    9.4315 C   0  0  0  0  0  0  0  0  0  0  0  0
    4.4539  -48.1514    7.2515 H   0  0  0  0  0  0  0  0  0  0  0  0
   -1.1203  -52.5160    6.4348 H   0  0  0  0  0  0  0  0  0  0  0  0
   -3.4285  -51.8632    5.7286 H   0  0  0  0  0  0  0  0  0  0  0  0
   -3.9277  -49.4886    5.1805 H   0  0  0  0  0  0  0  0  0  0  0  0
   -2.1565  -47.7664    5.3372 H   0  0  0  0  0  0  0  0  0  0  0  0
    1.8021  -46.7504    5.5246 H   0  0  0  0  0  0  0  0  0  0  0  0
    0.0352  -46.5536    5.2676 H   0  0  0  0  0  0  0  0  0  0  0  0
    1.3685  -46.5890    8.0232 H   0  0  0  0  0  0  0  0  0  0  0  0
    1.0304  -45.0895    7.0937 H   0  0  0  0  0  0  0  0  0  0  0  0
   -1.1027  -47.1125    7.9797 H   0  0  0  0  0  0  0  0  0  0  0  0
   -0.7210  -45.5778    8.8315 H   0  0  0  0  0  0  0  0  0  0  0  0
   -6.6811  -44.3022    7.5206 H   0  0  0  0  0  0  0  0  0  0  0  0
   -5.3594  -43.4293    5.6009 H   0  0  0  0  0  0  0  0  0  0  0  0
   -2.9579  -43.9776    5.4123 H   0  0  0  0  0  0  0  0  0  0  0  0
    1.4602  -51.3650    6.9543 H   0  0  0  0  0  0  0  0  0  0  0  0
   -4.6640  -47.3433   11.0043 H   0  0  0  0  0  0  0  0  0  0  0  0
   -6.4671  -45.9383    9.8005 H   0  0  0  0  0  0  0  0  0  0  0  0
   -2.4025  -47.0296    9.6884 H   0  0  0  0  0  0  0  0  0  0  0  0
  1  2  2  0  0  0  0
  2  3  1  0  0  0  0
  2  4  1  0  0  0  0
  4 11  2  0  0  0  0
  4 20  1  0  0  0  0
  5  6  2  0  0  0  0
  5 10  1  0  0  0  0
  5 20  1  0  0  0  0
  6  7  1  0  0  0  0
  7  8  2  0  0  0  0
  8  9  1  0  0  0  0
  9 10  2  0  0  0  0
 10 11  1  0  0  0  0
 11 12  1  0  0  0  0
 12 13  1  0  0  0  0
 13 14  1  0  0  0  0
 14 15  1  0  0  0  0
 15 16  1  0  0  0  0
 16 19  2  0  0  0  0
 16 24  1  0  0  0  0
 17 18  2  0  0  0  0
 17 23  1  0  0  0  0
 18 19  1  0  0  0  0
 21 22  1  0  0  0  0
 21 25  2  0  0  0  0
 22 23  1  0  0  0  0
 23 24  2  0  0  0  0
 24 25  1  0  0  0  0
  3 26  1  0  0  0  0
  6 27  1  0  0  0  0
  7 28  1  0  0  0  0
  8 29  1  0  0  0  0
  9 30  1  0  0  0  0
 12 31  1  0  0  0  0
 12 32  1  0  0  0  0
 13 33  1  0  0  0  0
 13 34  1  0  0  0  0
 14 35  1  0  0  0  0
 14 36  1  0  0  0  0
 17 37  1  0  0  0  0
 18 38  1  0  0  0  0
 19 39  1  0  0  0  0
 20 40  1  0  0  0  0
 21 41  1  0  0  0  0
 22 42  1  0  0  0  0
 25 43  1  0  0  0  0
M  END
> <r_user_dG.exp>
-6.6626190630157

$$$$
48
  -OEChem-05162309453D
 Structure written by MMmdl.
 43 46  0     0  0  0  0  0  0999 V2000
    3.5962  -50.2382    7.2860 O   0  0  0  0  0  0  0  0  0  0  0  0
    2.9915  -49.1832    6.9785 C   0  0  0  0  0  0  0  0  0  0  0  0
    3.5468  -48.0563    6.9856 O   0  0  0  0  0  0  0  0  0  0  0  0
    1.5667  -49.2814    6.6034 C   0  0  0  0  0  0  0  0  0  0  0  0
   -0.3493  -50.4961    6.2933 C   0  0  0  0  0  0  0  0  0  0  0  0
   -1.3483  -51.4866    6.2008 C   0  0  0  0  0  0  0  0  0  0  0  0
   -2.6508  -51.1171    5.7985 C   0  0  0  0  0  0  0  0  0  0  0  0
   -2.9320  -49.7715    5.4886 C   0  0  0  0  0  0  0  0  0  0  0  0
   -1.9224  -48.7928    5.5781 C   0  0  0  0  0  0  0  0  0  0  0  0
   -0.6057  -49.1301    5.9783 C   0  0  0  0  0  0  0  0  0  0  0  0
    0.6128  -48.3833    6.1734 C   0  0  0  0  0  0  0  0  0  0  0  0
    0.8068  -46.9172    5.9622 C   0  0  0  0  0  0  0  0  0  0  0  0
    0.7034  -46.1229    7.2813 C   0  0  0  0  0  0  0  0  0  0  0  0
   -0.7224  -46.0877    7.8568 C   0  0  0  0  0  0  0  0  0  0  0  0
   -1.5391  -45.3745    6.9378 O   0  0  0  0  0  0  0  0  0  0  0  0
   -2.8810  -45.1822    7.1989 C   0  0  0  0  0  0  0  0  0  0  0  0
   -5.6349  -44.5517    7.4221 C   0  0  0  0  0  0  0  0  0  0  0  0
   -4.8882  -44.0528    6.3462 C   0  0  0  0  0  0  0  0  0  0  0  0
   -3.5272  -44.3675    6.2431 C   0  0  0  0  0  0  0  0  0  0  0  0
    0.9807  -50.5349    6.6696 N   0  0  0  0  0  0  0  0  0  0  0  0
   -4.5301  -46.7432   10.1164 C   0  0  0  0  0  0  0  0  0  0  0  0
   -5.5194  -46.0063    9.4887 N   0  0  0  0  0  0  0  0  0  0  0  0
   -5.0107  -45.3807    8.3736 C   0  0  0  0  0  0  0  0  0  0  0  0
   -3.6231  -45.7297    8.3012 C   0  0  0  0  0  0  0  0  0  0  0  0
   -3.3547  -46.5895    9.4315 C   0  0  0  0  0  0  0  0  0  0  0  0
    4.4539  -48.1514    7.2515 H   0  0  0  0  0  0  0  0  0  0  0  0
   -1.1203  -52.5160    6.4348 H   0  0  0  0  0  0  0  0  0  0  0  0
   -3.4285  -51.8632    5.7286 H   0  0  0  0  0  0  0  0  0  0  0  0
   -3.9277  -49.4886    5.1805 H   0  0  0  0  0  0  0  0  0  0  0  0
   -2.1565  -47.7664    5.3372 H   0  0  0  0  0  0  0  0  0  0  0  0
    1.8021  -46.7504    5.5246 H   0  0  0  0  0  0  0  0  0  0  0  0
    0.0352  -46.5536    5.2676 H   0  0  0  0  0  0  0  0  0  0  0  0
    1.3685  -46.5890    8.0232 H   0  0  0  0  0  0  0  0  0  0  0  0
    1.0304  -45.0895    7.0937 H   0  0  0  0  0  0  0  0  0  0  0  0
   -1.1027  -47.1125    7.9797 H   0  0  0  0  0  0  0  0  0  0  0  0
   -0.7210  -45.5778    8.8315 H   0  0  0  0  0  0  0  0  0  0  0  0
   -6.6811  -44.3022    7.5206 H   0  0  0  0  0  0  0  0  0  0  0  0
   -5.3594  -43.4293    5.6009 H   0  0  0  0  0  0  0  0  0  0  0  0
   -2.9579  -43.9776    5.4123 H   0  0  0  0  0  0  0  0  0  0  0  0
    1.4602  -51.3650    6.9543 H   0  0  0  0  0  0  0  0  0  0  0  0
   -4.6640  -47.3433   11.0043 H   0  0  0  0  0  0  0  0  0  0  0  0
   -2.5973  -46.1290   10.0829 H   0  0  0  0  0  0  0  0  0  0  0  0
   -2.9922  -47.5676    9.0823 H   0  0  0  0  0  0  0  0  0  0  0  0
  1  2  2  0  0  0  0
  2  3  1  0  0  0  0
  2  4  1  0  0  0  0
  4 11  2  0  0  0  0
  4 20  1  0  0  0  0
  5  6  2  0  0  0  0
  5 10  1  0  0  0  0
  5 20  1  0  0  0  0
  6  7  1  0  0  0  0
  7  8  2  0  0  0  0
  8  9  1  0  0  0  0
  9 10  2  0  0  0  0
 10 11  1  0  0  0  0
 11 12  1  0  0  0  0
 12 13  1  0  0  0  0
 13 14  1  0  0  0  0
 14 15  1  0  0  0  0
 15 16  1  0  0  0  0
 16 19  2  0  0  0  0
 16 24  1  0  0  0  0
 17 18  2  0  0  0  0
 17 23  1  0  0  0  0
 18 19  1  0  0  0  0
 21 22  2  0  0  0  0
 21 25  1  0  0  0  0
 22 23  1  0  0  0  0
 23 24  2  0  0  0  0
 24 25  1  0  0  0  0
  3 26  1  0  0  0  0
  6 27  1  0  0  0  0
  7 28  1  0  0  0  0
  8 29  1  0  0  0  0
  9 30  1  0  0  0  0
 12 31  1  0  0  0  0
 12 32  1  0  0  0  0
 13 33  1  0  0  0  0
 13 34  1  0  0  0  0
 14 35  1  0  0  0  0
 14 36  1  0  0  0  0
 17 37  1  0  0  0  0
 18 38  1  0  0  0  0
 19 39  1  0  0  0  0
 20 40  1  0  0  0  0
 21 41  1  0  0  0  0
 25 42  1  0  0  0  0
 25 43  1  0  0  0  0
M  END
> <r_user_dG.exp>
-6.6626190630157

$$$$
48
  -OEChem-05162309453D
 Structure written by MMmdl.
 43 46  0     1  0  0  0  0  0999 V2000
    3.5962  -50.2382    7.2860 O   0  0  0  0  0  0  0  0  0  0  0  0
    2.9915  -49.1832    6.9785 C   0  0  0  0  0  0  0  0  0  0  0  0
    3.5468  -48.0563    6.9856 O   0  0  0  0  0  0  0  0  0  0  0  0
    1.5667  -49.2814    6.6034 C   0  0  0  0  0  0  0  0  0  0  0  0
   -0.3493  -50.4961    6.2933 C   0  0  0  0  0  0  0  0  0  0  0  0
   -1.3483  -51.4866    6.2008 C   0  0  0  0  0  0  0  0  0  0  0  0
   -2.6508  -51.1171    5.7985 C   0  0  0  0  0  0  0  0  0  0  0  0
   -2.9320  -49.7715    5.4886 C   0  0  0  0  0  0  0  0  0  0  0  0
   -1.9224  -48.7928    5.5781 C   0  0  0  0  0  0  0  0  0  0  0  0
   -0.6057  -49.1301    5.9783 C   0  0  0  0  0  0  0  0  0  0  0  0
    0.6128  -48.3833    6.1734 C   0  0  3  0  0  0  0  0  0  0  0  0
    0.8068  -46.9172    5.9622 C   0  0  0  0  0  0  0  0  0  0  0  0
    0.7034  -46.1229    7.2813 C   0  0  0  0  0  0  0  0  0  0  0  0
   -0.7224  -46.0877    7.8568 C   0  0  0  0  0  0  0  0  0  0  0  0
   -1.5391  -45.3745    6.9378 O   0  0  0  0  0  0  0  0  0  0  0  0
   -2.8810  -45.1822    7.1989 C   0  0  0  0  0  0  0  0  0  0  0  0
   -5.6349  -44.5517    7.4221 C   0  0  0  0  0  0  0  0  0  0  0  0
   -4.8882  -44.0528    6.3462 C   0  0  0  0  0  0  0  0  0  0  0  0
   -3.5272  -44.3675    6.2431 C   0  0  0  0  0  0  0  0  0  0  0  0
    0.9807  -50.5349    6.6696 N   0  0  0  0  0  0  0  0  0  0  0  0
   -4.5301  -46.7432   10.1164 C   0  0  0  0  0  0  0  0  0  0  0  0
   -5.5194  -46.0063    9.4887 N   0  0  0  0  0  0  0  0  0  0  0  0
   -5.0107  -45.3807    8.3736 C   0  0  0  0  0  0  0  0  0  0  0  0
   -3.6231  -45.7297    8.3012 C   0  0  0  0  0  0  0  0  0  0  0  0
   -3.3547  -46.5895    9.4315 C   0  0  0  0  0  0  0  0  0  0  0  0
    4.4539  -48.1514    7.2515 H   0  0  0  0  0  0  0  0  0  0  0  0
   -1.1203  -52.5160    6.4348 H   0  0  0  0  0  0  0  0  0  0  0  0
   -3.4285  -51.8632    5.7286 H   0  0  0  0  0  0  0  0  0  0  0  0
   -3.9277  -49.4886    5.1805 H   0  0  0  0  0  0  0  0  0  0  0  0
   -2.1565  -47.7664    5.3372 H   0  0  0  0  0  0  0  0  0  0  0  0
    0.9001  -48.5743    5.1289 H   0  0  0  0  0  0  0  0  0  0  0  0
    1.8021  -46.7504    5.5246 H   0  0  0  0  0  0  0  0  0  0  0  0
    0.0352  -46.5536    5.2676 H   0  0  0  0  0  0  0  0  0  0  0  0
    1.3685  -46.5890    8.0232 H   0  0  0  0  0  0  0  0  0  0  0  0
    1.0304  -45.0895    7.0937 H   0  0  0  0  0  0  0  0  0  0  0  0
   -1.1027  -47.1125    7.9797 H   0  0  0  0  0  0  0  0  0  0  0  0
   -0.7210  -45.5778    8.8315 H   0  0  0  0  0  0  0  0  0  0  0  0
   -6.6811  -44.3022    7.5206 H   0  0  0  0  0  0  0  0  0  0  0  0
   -5.3594  -43.4293    5.6009 H   0  0  0  0  0  0  0  0  0  0  0  0
   -2.9579  -43.9776    5.4123 H   0  0  0  0  0  0  0  0  0  0  0  0
   -4.6640  -47.3433   11.0043 H   0  0  0  0  0  0  0  0  0  0  0  0
   -6.4671  -45.9383    9.8005 H   0  0  0  0  0  0  0  0  0  0  0  0
   -2.4025  -47.0296    9.6884 H   0  0  0  0  0  0  0  0  0  0  0  0
  1  2  2  0  0  0  0
  2  3  1  0  0  0  0
  2  4  1  0  0  0  0
  4 11  1  0  0  0  0
  4 20  2  0  0  0  0
  5  6  2  0  0  0  0
  5 10  1  0  0  0  0
  5 20  1  0  0  0  0
  6  7  1  0  0  0  0
  7  8  2  0  0  0  0
  8  9  1  0  0  0  0
  9 10  2  0  0  0  0
 10 11  1  0  0  0  0
 11 12  1  0  0  0  0
 12 13  1  0  0  0  0
 13 14  1  0  0  0  0
 14 15  1  0  0  0  0
 15 16  1  0  0  0  0
 16 19  2  0  0  0  0
 16 24  1  0  0  0  0
 17 18  2  0  0  0  0
 17 23  1  0  0  0  0
 18 19  1  0  0  0  0
 21 22  1  0  0  0  0
 21 25  2  0  0  0  0
 22 23  1  0  0  0  0
 23 24  2  0  0  0  0
 24 25  1  0  0  0  0
  3 26  1  0  0  0  0
  6 27  1  0  0  0  0
  7 28  1  0  0  0  0
  8 29  1  0  0  0  0
  9 30  1  0  0  0  0
 11 31  1  0  0  0  0
 12 32  1  0  0  0  0
 12 33  1  0  0  0  0
 13 34  1  0  0  0  0
 13 35  1  0  0  0  0
 14 36  1  0  0  0  0
 14 37  1  0  0  0  0
 17 38  1  0  0  0  0
 18 39  1  0  0  0  0
 19 40  1  0  0  0  0
 21 41  1  0  0  0  0
 22 42  1  0  0  0  0
 25 43  1  0  0  0  0
M  END
> <r_user_dG.exp>
-6.6626190630157

$$$$
48
  -OEChem-05162309453D
 Structure written by MMmdl.
 43 46  0     0  0  0  0  0  0999 V2000
    3.5962  -50.2382    7.2860 O   0  0  0  0  0  0  0  0  0  0  0  0
    2.9915  -49.1832    6.9785 C   0  0  0  0  0  0  0  0  0  0  0  0
    3.5468  -48.0563    6.9856 O   0  0  0  0  0  0  0  0  0  0  0  0
    1.5667  -49.2814    6.6034 C   0  0  0  0  0  0  0  0  0  0  0  0
   -0.3493  -50.4961    6.2933 C   0  0  0  0  0  0  0  0  0  0  0  0
   -1.3483  -51.4866    6.2008 C   0  0  0  0  0  0  0  0  0  0  0  0
   -2.6508  -51.1171    5.7985 C   0  0  0  0  0  0  0  0  0  0  0  0
   -2.9320  -49.7715    5.4886 C   0  0  0  0  0  0  0  0  0  0  0  0
   -1.9224  -48.7928    5.5781 C   0  0  0  0  0  0  0  0  0  0  0  0
   -0.6057  -49.1301    5.9783 C   0  0  0  0  0  0  0  0  0  0  0  0
    0.6128  -48.3833    6.1734 C   0  0  0  0  0  0  0  0  0  0  0  0
    0.8068  -46.9172    5.9622 C   0  0  0  0  0  0  0  0  0  0  0  0
    0.7034  -46.1229    7.2813 C   0  0  0  0  0  0  0  0  0  0  0  0
   -0.7224  -46.0877    7.8568 C   0  0  0  0  0  0  0  0  0  0  0  0
   -1.5391  -45.3745    6.9378 O   0  0  0  0  0  0  0  0  0  0  0  0
   -2.8810  -45.1822    7.1989 C   0  0  0  0  0  0  0  0  0  0  0  0
   -5.6349  -44.5517    7.4221 C   0  0  0  0  0  0  0  0  0  0  0  0
   -4.8882  -44.0528    6.3462 C   0  0  0  0  0  0  0  0  0  0  0  0
   -3.5272  -44.3675    6.2431 C   0  0  0  0  0  0  0  0  0  0  0  0
    0.9807  -50.5349    6.6696 N   0  0  0  0  0  0  0  0  0  0  0  0
   -4.5301  -46.7432   10.1164 C   0  0  0  0  0  0  0  0  0  0  0  0
   -5.5194  -46.0063    9.4887 N   0  0  0  0  0  0  0  0  0  0  0  0
   -5.0107  -45.3807    8.3736 C   0  0  0  0  0  0  0  0  0  0  0  0
   -3.6231  -45.7297    8.3012 C   0  0  0  0  0  0  0  0  0  0  0  0
   -3.3547  -46.5895    9.4315 C   0  0  0  0  0  0  0  0  0  0  0  0
    4.4539  -48.1514    7.2515 H   0  0  0  0  0  0  0  0  0  0  0  0
   -1.1203  -52.5160    6.4348 H   0  0  0  0  0  0  0  0  0  0  0  0
   -3.4285  -51.8632    5.7286 H   0  0  0  0  0  0  0  0  0  0  0  0
   -3.9277  -49.4886    5.1805 H   0  0  0  0  0  0  0  0  0  0  0  0
   -2.1565  -47.7664    5.3372 H   0  0  0  0  0  0  0  0  0  0  0  0
    1.8021  -46.7504    5.5246 H   0  0  0  0  0  0  0  0  0  0  0  0
    0.0352  -46.5536    5.2676 H   0  0  0  0  0  0  0  0  0  0  0  0
    1.3685  -46.5890    8.0232 H   0  0  0  0  0  0  0  0  0  0  0  0
    1.0304  -45.0895    7.0937 H   0  0  0  0  0  0  0  0  0  0  0  0
   -1.1027  -47.1125    7.9797 H   0  0  0  0  0  0  0  0  0  0  0  0
   -0.7210  -45.5778    8.8315 H   0  0  0  0  0  0  0  0  0  0  0  0
   -6.6811  -44.3022    7.5206 H   0  0  0  0  0  0  0  0  0  0  0  0
   -5.3594  -43.4293    5.6009 H   0  0  0  0  0  0  0  0  0  0  0  0
   -2.9579  -43.9776    5.4123 H   0  0  0  0  0  0  0  0  0  0  0  0
    1.4602  -51.3650    6.9543 H   0  0  0  0  0  0  0  0  0  0  0  0
   -4.4041  -46.3862   11.1492 H   0  0  0  0  0  0  0  0  0  0  0  0
   -4.8136  -47.8060   10.1278 H   0  0  0  0  0  0  0  0  0  0  0  0
   -2.4025  -47.0296    9.6884 H   0  0  0  0  0  0  0  0  0  0  0  0
  1  2  2  0  0  0  0
  2  3  1  0  0  0  0
  2  4  1  0  0  0  0
  4 11  2  0  0  0  0
  4 20  1  0  0  0  0
  5  6  2  0  0  0  0
  5 10  1  0  0  0  0
  5 20  1  0  0  0  0
  6  7  1  0  0  0  0
  7  8  2  0  0  0  0
  8  9  1  0  0  0  0
  9 10  2  0  0  0  0
 10 11  1  0  0  0  0
 11 12  1  0  0  0  0
 12 13  1  0  0  0  0
 13 14  1  0  0  0  0
 14 15  1  0  0  0  0
 15 16  1  0  0  0  0
 16 19  2  0  0  0  0
 16 24  1  0  0  0  0
 17 18  2  0  0  0  0
 17 23  1  0  0  0  0
 18 19  1  0  0  0  0
 21 22  1  0  0  0  0
 21 25  1  0  0  0  0
 22 23  2  0  0  0  0
 23 24  1  0  0  0  0
 24 25  2  0  0  0  0
  3 26  1  0  0  0  0
  6 27  1  0  0  0  0
  7 28  1  0  0  0  0
  8 29  1  0  0  0  0
  9 30  1  0  0  0  0
 12 31  1  0  0  0  0
 12 32  1  0  0  0  0
 13 33  1  0  0  0  0
 13 34  1  0  0  0  0
 14 35  1  0  0  0  0
 14 36  1  0  0  0  0
 17 37  1  0  0  0  0
 18 38  1  0  0  0  0
 19 39  1  0  0  0  0
 20 40  1  0  0  0  0
 21 41  1  0  0  0  0
 21 42  1  0  0  0  0
 25 43  1  0  0  0  0
M  END
> <r_user_dG.exp>
-6.6626190630157

$$$$
48
  -OEChem-05162309453D
 Structure written by MMmdl.
 43 46  0     1  0  0  0  0  0999 V2000
    3.5962  -50.2382    7.2860 O   0  0  0  0  0  0  0  0  0  0  0  0
    2.9915  -49.1832    6.9785 C   0  0  0  0  0  0  0  0  0  0  0  0
    3.5468  -48.0563    6.9856 O   0  0  0  0  0  0  0  0  0  0  0  0
    1.5667  -49.2814    6.6034 C   0  0  3  0  0  0  0  0  0  0  0  0
   -0.3493  -50.4961    6.2933 C   0  0  0  0  0  0  0  0  0  0  0  0
   -1.3483  -51.4866    6.2008 C   0  0  0  0  0  0  0  0  0  0  0  0
   -2.6508  -51.1171    5.7985 C   0  0  0  0  0  0  0  0  0  0  0  0
   -2.9320  -49.7715    5.4886 C   0  0  0  0  0  0  0  0  0  0  0  0
   -1.9224  -48.7928    5.5781 C   0  0  0  0  0  0  0  0  0  0  0  0
   -0.6057  -49.1301    5.9783 C   0  0  0  0  0  0  0  0  0  0  0  0
    0.6128  -48.3833    6.1734 C   0  0  0  0  0  0  0  0  0  0  0  0
    0.8068  -46.9172    5.9622 C   0  0  0  0  0  0  0  0  0  0  0  0
    0.7034  -46.1229    7.2813 C   0  0  0  0  0  0  0  0  0  0  0  0
   -0.7224  -46.0877    7.8568 C   0  0  0  0  0  0  0  0  0  0  0  0
   -1.5391  -45.3745    6.9378 O   0  0  0  0  0  0  0  0  0  0  0  0
   -2.8810  -45.1822    7.1989 C   0  0  0  0  0  0  0  0  0  0  0  0
   -5.6349  -44.5517    7.4221 C   0  0  0  0  0  0  0  0  0  0  0  0
   -4.8882  -44.0528    6.3462 C   0  0  0  0  0  0  0  0  0  0  0  0
   -3.5272  -44.3675    6.2431 C   0  0  0  0  0  0  0  0  0  0  0  0
    0.9807  -50.5349    6.6696 N   0  0  0  0  0  0  0  0  0  0  0  0
   -4.5301  -46.7432   10.1164 C   0  0  0  0  0  0  0  0  0  0  0  0
   -5.5194  -46.0063    9.4887 N   0  0  0  0  0  0  0  0  0  0  0  0
   -5.0107  -45.3807    8.3736 C   0  0  0  0  0  0  0  0  0  0  0  0
   -3.6231  -45.7297    8.3012 C   0  0  0  0  0  0  0  0  0  0  0  0
   -3.3547  -46.5895    9.4315 C   0  0  0  0  0  0  0  0  0  0  0  0
    4.4539  -48.1514    7.2515 H   0  0  0  0  0  0  0  0  0  0  0  0
    1.2777  -49.0901    7.6474 H   0  0  0  0  0  0  0  0  0  0  0  0
   -1.1203  -52.5160    6.4348 H   0  0  0  0  0  0  0  0  0  0  0  0
   -3.4285  -51.8632    5.7286 H   0  0  0  0  0  0  0  0  0  0  0  0
   -3.9277  -49.4886    5.1805 H   0  0  0  0  0  0  0  0  0  0  0  0
   -2.1565  -47.7664    5.3372 H   0  0  0  0  0  0  0  0  0  0  0  0
    1.8021  -46.7504    5.5246 H   0  0  0  0  0  0  0  0  0  0  0  0
    0.0352  -46.5536    5.2676 H   0  0  0  0  0  0  0  0  0  0  0  0
    1.3685  -46.5890    8.0232 H   0  0  0  0  0  0  0  0  0  0  0  0
    1.0304  -45.0895    7.0937 H   0  0  0  0  0  0  0  0  0  0  0  0
   -1.1027  -47.1125    7.9797 H   0  0  0  0  0  0  0  0  0  0  0  0
   -0.7210  -45.5778    8.8315 H   0  0  0  0  0  0  0  0  0  0  0  0
   -6.6811  -44.3022    7.5206 H   0  0  0  0  0  0  0  0  0  0  0  0
   -5.3594  -43.4293    5.6009 H   0  0  0  0  0  0  0  0  0  0  0  0
   -2.9579  -43.9776    5.4123 H   0  0  0  0  0  0  0  0  0  0  0  0
   -4.6640  -47.3433   11.0043 H   0  0  0  0  0  0  0  0  0  0  0  0
   -6.4671  -45.9383    9.8005 H   0  0  0  0  0  0  0  0  0  0  0  0
   -2.4025  -47.0296    9.6884 H   0  0  0  0  0  0  0  0  0  0  0  0
  1  2  2  0  0  0  0
  2  3  1  0  0  0  0
  2  4  1  0  0  0  0
  4 11  1  0  0  0  0
  4 20  1  0  0  0  0
  5  6  1  0  0  0  0
  5 10  1  0  0  0  0
  5 20  2  0  0  0  0
  6  7  2  0  0  0  0
  7  8  1  0  0  0  0
  8  9  2  0  0  0  0
  9 10  1  0  0  0  0
 10 11  2  0  0  0  0
 11 12  1  0  0  0  0
 12 13  1  0  0  0  0
 13 14  1  0  0  0  0
 14 15  1  0  0  0  0
 15 16  1  0  0  0  0
 16 19  2  0  0  0  0
 16 24  1  0  0  0  0
 17 18  2  0  0  0  0
 17 23  1  0  0  0  0
 18 19  1  0  0  0  0
 21 22  1  0  0  0  0
 21 25  2  0  0  0  0
 22 23  1  0  0  0  0
 23 24  2  0  0  0  0
 24 25  1  0  0  0  0
  3 26  1  0  0  0  0
  4 27  1  0  0  0  0
  6 28  1  0  0  0  0
  7 29  1  0  0  0  0
  8 30  1  0  0  0  0
  9 31  1  0  0  0  0
 12 32  1  0  0  0  0
 12 33  1  0  0  0  0
 13 34  1  0  0  0  0
 13 35  1  0  0  0  0
 14 36  1  0  0  0  0
 14 37  1  0  0  0  0
 17 38  1  0  0  0  0
 18 39  1  0  0  0  0
 19 40  1  0  0  0  0
 21 41  1  0  0  0  0
 22 42  1  0  0  0  0
 25 43  1  0  0  0  0
M  END
> <r_user_dG.exp>
-6.6626190630157

$$$$
48
  -OEChem-05162309453D
 Structure written by MMmdl.
 43 46  0     1  0  0  0  0  0999 V2000
    3.5962  -50.2382    7.2860 O   0  0  0  0  0  0  0  0  0  0  0  0
    2.9915  -49.1832    6.9785 C   0  0  0  0  0  0  0  0  0  0  0  0
    3.5468  -48.0563    6.9856 O   0  0  0  0  0  0  0  0  0  0  0  0
    1.5667  -49.2814    6.6034 C   0  0  0  0  0  0  0  0  0  0  0  0
   -0.3493  -50.4961    6.2933 C   0  0  0  0  0  0  0  0  0  0  0  0
   -1.3483  -51.4866    6.2008 C   0  0  0  0  0  0  0  0  0  0  0  0
   -2.6508  -51.1171    5.7985 C   0  0  0  0  0  0  0  0  0  0  0  0
   -2.9320  -49.7715    5.4886 C   0  0  0  0  0  0  0  0  0  0  0  0
   -1.9224  -48.7928    5.5781 C   0  0  0  0  0  0  0  0  0  0  0  0
   -0.6057  -49.1301    5.9783 C   0  0  0  0  0  0  0  0  0  0  0  0
    0.6128  -48.3833    6.1734 C   0  0  3  0  0  0  0  0  0  0  0  0
    0.8068  -46.9172    5.9622 C   0  0  0  0  0  0  0  0  0  0  0  0
    0.7034  -46.1229    7.2813 C   0  0  0  0  0  0  0  0  0  0  0  0
   -0.7224  -46.0877    7.8568 C   0  0  0  0  0  0  0  0  0  0  0  0
   -1.5391  -45.3745    6.9378 O   0  0  0  0  0  0  0  0  0  0  0  0
   -2.8810  -45.1822    7.1989 C   0  0  0  0  0  0  0  0  0  0  0  0
   -5.6349  -44.5517    7.4221 C   0  0  0  0  0  0  0  0  0  0  0  0
   -4.8882  -44.0528    6.3462 C   0  0  0  0  0  0  0  0  0  0  0  0
   -3.5272  -44.3675    6.2431 C   0  0  0  0  0  0  0  0  0  0  0  0
    0.9807  -50.5349    6.6696 N   0  0  0  0  0  0  0  0  0  0  0  0
   -4.5301  -46.7432   10.1164 C   0  0  0  0  0  0  0  0  0  0  0  0
   -5.5194  -46.0063    9.4887 N   0  0  0  0  0  0  0  0  0  0  0  0
   -5.0107  -45.3807    8.3736 C   0  0  0  0  0  0  0  0  0  0  0  0
   -3.6231  -45.7297    8.3012 C   0  0  0  0  0  0  0  0  0  0  0  0
   -3.3547  -46.5895    9.4315 C   0  0  0  0  0  0  0  0  0  0  0  0
    4.4539  -48.1514    7.2515 H   0  0  0  0  0  0  0  0  0  0  0  0
   -1.1203  -52.5160    6.4348 H   0  0  0  0  0  0  0  0  0  0  0  0
   -3.4285  -51.8632    5.7286 H   0  0  0  0  0  0  0  0  0  0  0  0
   -3.9277  -49.4886    5.1805 H   0  0  0  0  0  0  0  0  0  0  0  0
   -2.1565  -47.7664    5.3372 H   0  0  0  0  0  0  0  0  0  0  0  0
    0.9001  -48.5743    5.1289 H   0  0  0  0  0  0  0  0  0  0  0  0
    1.8021  -46.7504    5.5246 H   0  0  0  0  0  0  0  0  0  0  0  0
    0.0352  -46.5536    5.2676 H   0  0  0  0  0  0  0  0  0  0  0  0
    1.3685  -46.5890    8.0232 H   0  0  0  0  0  0  0  0  0  0  0  0
    1.0304  -45.0895    7.0937 H   0  0  0  0  0  0  0  0  0  0  0  0
   -1.1027  -47.1125    7.9797 H   0  0  0  0  0  0  0  0  0  0  0  0
   -0.7210  -45.5778    8.8315 H   0  0  0  0  0  0  0  0  0  0  0  0
   -6.6811  -44.3022    7.5206 H   0  0  0  0  0  0  0  0  0  0  0  0
   -5.3594  -43.4293    5.6009 H   0  0  0  0  0  0  0  0  0  0  0  0
   -2.9579  -43.9776    5.4123 H   0  0  0  0  0  0  0  0  0  0  0  0
   -4.6640  -47.3433   11.0043 H   0  0  0  0  0  0  0  0  0  0  0  0
   -2.5973  -46.1290   10.0829 H   0  0  0  0  0  0  0  0  0  0  0  0
   -2.9922  -47.5676    9.0823 H   0  0  0  0  0  0  0  0  0  0  0  0
  1  2  2  0  0  0  0
  2  3  1  0  0  0  0
  2  4  1  0  0  0  0
  4 11  1  0  0  0  0
  4 20  2  0  0  0  0
  5  6  2  0  0  0  0
  5 10  1  0  0  0  0
  5 20  1  0  0  0  0
  6  7  1  0  0  0  0
  7  8  2  0  0  0  0
  8  9  1  0  0  0  0
  9 10  2  0  0  0  0
 10 11  1  0  0  0  0
 11 12  1  0  0  0  0
 12 13  1  0  0  0  0
 13 14  1  0  0  0  0
 14 15  1  0  0  0  0
 15 16  1  0  0  0  0
 16 19  2  0  0  0  0
 16 24  1  0  0  0  0
 17 18  2  0  0  0  0
 17 23  1  0  0  0  0
 18 19  1  0  0  0  0
 21 22  2  0  0  0  0
 21 25  1  0  0  0  0
 22 23  1  0  0  0  0
 23 24  2  0  0  0  0
 24 25  1  0  0  0  0
  3 26  1  0  0  0  0
  6 27  1  0  0  0  0
  7 28  1  0  0  0  0
  8 29  1  0  0  0  0
  9 30  1  0  0  0  0
 11 31  1  0  0  0  0
 12 32  1  0  0  0  0
 12 33  1  0  0  0  0
 13 34  1  0  0  0  0
 13 35  1  0  0  0  0
 14 36  1  0  0  0  0
 14 37  1  0  0  0  0
 17 38  1  0  0  0  0
 18 39  1  0  0  0  0
 19 40  1  0  0  0  0
 21 41  1  0  0  0  0
 25 42  1  0  0  0  0
 25 43  1  0  0  0  0
M  END
> <r_user_dG.exp>
-6.6626190630157

$$$$
48
  -OEChem-05162309453D
 Structure written by MMmdl.
 43 46  0     1  0  0  0  0  0999 V2000
    3.5962  -50.2382    7.2860 O   0  0  0  0  0  0  0  0  0  0  0  0
    2.9915  -49.1832    6.9785 C   0  0  0  0  0  0  0  0  0  0  0  0
    3.5468  -48.0563    6.9856 O   0  0  0  0  0  0  0  0  0  0  0  0
    1.5667  -49.2814    6.6034 C   0  0  0  0  0  0  0  0  0  0  0  0
   -0.3493  -50.4961    6.2933 C   0  0  0  0  0  0  0  0  0  0  0  0
   -1.3483  -51.4866    6.2008 C   0  0  0  0  0  0  0  0  0  0  0  0
   -2.6508  -51.1171    5.7985 C   0  0  0  0  0  0  0  0  0  0  0  0
   -2.9320  -49.7715    5.4886 C   0  0  0  0  0  0  0  0  0  0  0  0
   -1.9224  -48.7928    5.5781 C   0  0  0  0  0  0  0  0  0  0  0  0
   -0.6057  -49.1301    5.9783 C   0  0  0  0  0  0  0  0  0  0  0  0
    0.6128  -48.3833    6.1734 C   0  0  3  0  0  0  0  0  0  0  0  0
    0.8068  -46.9172    5.9622 C   0  0  0  0  0  0  0  0  0  0  0  0
    0.7034  -46.1229    7.2813 C   0  0  0  0  0  0  0  0  0  0  0  0
   -0.7224  -46.0877    7.8568 C   0  0  0  0  0  0  0  0  0  0  0  0
   -1.5391  -45.3745    6.9378 O   0  0  0  0  0  0  0  0  0  0  0  0
   -2.8810  -45.1822    7.1989 C   0  0  0  0  0  0  0  0  0  0  0  0
   -5.6349  -44.5517    7.4221 C   0  0  0  0  0  0  0  0  0  0  0  0
   -4.8882  -44.0528    6.3462 C   0  0  0  0  0  0  0  0  0  0  0  0
   -3.5272  -44.3675    6.2431 C   0  0  0  0  0  0  0  0  0  0  0  0
    0.9807  -50.5349    6.6696 N   0  0  0  0  0  0  0  0  0  0  0  0
   -4.5301  -46.7432   10.1164 C   0  0  0  0  0  0  0  0  0  0  0  0
   -5.5194  -46.0063    9.4887 N   0  0  0  0  0  0  0  0  0  0  0  0
   -5.0107  -45.3807    8.3736 C   0  0  0  0  0  0  0  0  0  0  0  0
   -3.6231  -45.7297    8.3012 C   0  0  0  0  0  0  0  0  0  0  0  0
   -3.3547  -46.5895    9.4315 C   0  0  0  0  0  0  0  0  0  0  0  0
    4.4539  -48.1514    7.2515 H   0  0  0  0  0  0  0  0  0  0  0  0
   -1.1203  -52.5160    6.4348 H   0  0  0  0  0  0  0  0  0  0  0  0
   -3.4285  -51.8632    5.7286 H   0  0  0  0  0  0  0  0  0  0  0  0
   -3.9277  -49.4886    5.1805 H   0  0  0  0  0  0  0  0  0  0  0  0
   -2.1565  -47.7664    5.3372 H   0  0  0  0  0  0  0  0  0  0  0  0
    0.9001  -48.5743    5.1289 H   0  0  0  0  0  0  0  0  0  0  0  0
    1.8021  -46.7504    5.5246 H   0  0  0  0  0  0  0  0  0  0  0  0
    0.0352  -46.5536    5.2676 H   0  0  0  0  0  0  0  0  0  0  0  0
    1.3685  -46.5890    8.0232 H   0  0  0  0  0  0  0  0  0  0  0  0
    1.0304  -45.0895    7.0937 H   0  0  0  0  0  0  0  0  0  0  0  0
   -1.1027  -47.1125    7.9797 H   0  0  0  0  0  0  0  0  0  0  0  0
   -0.7210  -45.5778    8.8315 H   0  0  0  0  0  0  0  0  0  0  0  0
   -6.6811  -44.3022    7.5206 H   0  0  0  0  0  0  0  0  0  0  0  0
   -5.3594  -43.4293    5.6009 H   0  0  0  0  0  0  0  0  0  0  0  0
   -2.9579  -43.9776    5.4123 H   0  0  0  0  0  0  0  0  0  0  0  0
   -4.4041  -46.3862   11.1492 H   0  0  0  0  0  0  0  0  0  0  0  0
   -4.8136  -47.8060   10.1278 H   0  0  0  0  0  0  0  0  0  0  0  0
   -2.4025  -47.0296    9.6884 H   0  0  0  0  0  0  0  0  0  0  0  0
  1  2  2  0  0  0  0
  2  3  1  0  0  0  0
  2  4  1  0  0  0  0
  4 11  1  0  0  0  0
  4 20  2  0  0  0  0
  5  6  2  0  0  0  0
  5 10  1  0  0  0  0
  5 20  1  0  0  0  0
  6  7  1  0  0  0  0
  7  8  2  0  0  0  0
  8  9  1  0  0  0  0
  9 10  2  0  0  0  0
 10 11  1  0  0  0  0
 11 12  1  0  0  0  0
 12 13  1  0  0  0  0
 13 14  1  0  0  0  0
 14 15  1  0  0  0  0
 15 16  1  0  0  0  0
 16 19  2  0  0  0  0
 16 24  1  0  0  0  0
 17 18  2  0  0  0  0
 17 23  1  0  0  0  0
 18 19  1  0  0  0  0
 21 22  1  0  0  0  0
 21 25  1  0  0  0  0
 22 23  2  0  0  0  0
 23 24  1  0  0  0  0
 24 25  2  0  0  0  0
  3 26  1  0  0  0  0
  6 27  1  0  0  0  0
  7 28  1  0  0  0  0
  8 29  1  0  0  0  0
  9 30  1  0  0  0  0
 11 31  1  0  0  0  0
 12 32  1  0  0  0  0
 12 33  1  0  0  0  0
 13 34  1  0  0  0  0
 13 35  1  0  0  0  0
 14 36  1  0  0  0  0
 14 37  1  0  0  0  0
 17 38  1  0  0  0  0
 18 39  1  0  0  0  0
 19 40  1  0  0  0  0
 21 41  1  0  0  0  0
 21 42  1  0  0  0  0
 25 43  1  0  0  0  0
M  END
> <r_user_dG.exp>
-6.6626190630157

$$$$
48
  -OEChem-05162309453D
 Structure written by MMmdl.
 43 46  0     1  0  0  0  0  0999 V2000
    3.5962  -50.2382    7.2860 O   0  0  0  0  0  0  0  0  0  0  0  0
    2.9915  -49.1832    6.9785 C   0  0  0  0  0  0  0  0  0  0  0  0
    3.5468  -48.0563    6.9856 O   0  0  0  0  0  0  0  0  0  0  0  0
    1.5667  -49.2814    6.6034 C   0  0  3  0  0  0  0  0  0  0  0  0
   -0.3493  -50.4961    6.2933 C   0  0  0  0  0  0  0  0  0  0  0  0
   -1.3483  -51.4866    6.2008 C   0  0  0  0  0  0  0  0  0  0  0  0
   -2.6508  -51.1171    5.7985 C   0  0  0  0  0  0  0  0  0  0  0  0
   -2.9320  -49.7715    5.4886 C   0  0  0  0  0  0  0  0  0  0  0  0
   -1.9224  -48.7928    5.5781 C   0  0  0  0  0  0  0  0  0  0  0  0
   -0.6057  -49.1301    5.9783 C   0  0  0  0  0  0  0  0  0  0  0  0
    0.6128  -48.3833    6.1734 C   0  0  0  0  0  0  0  0  0  0  0  0
    0.8068  -46.9172    5.9622 C   0  0  0  0  0  0  0  0  0  0  0  0
    0.7034  -46.1229    7.2813 C   0  0  0  0  0  0  0  0  0  0  0  0
   -0.7224  -46.0877    7.8568 C   0  0  0  0  0  0  0  0  0  0  0  0
   -1.5391  -45.3745    6.9378 O   0  0  0  0  0  0  0  0  0  0  0  0
   -2.8810  -45.1822    7.1989 C   0  0  0  0  0  0  0  0  0  0  0  0
   -5.6349  -44.5517    7.4221 C   0  0  0  0  0  0  0  0  0  0  0  0
   -4.8882  -44.0528    6.3462 C   0  0  0  0  0  0  0  0  0  0  0  0
   -3.5272  -44.3675    6.2431 C   0  0  0  0  0  0  0  0  0  0  0  0
    0.9807  -50.5349    6.6696 N   0  0  0  0  0  0  0  0  0  0  0  0
   -4.5301  -46.7432   10.1164 C   0  0  0  0  0  0  0  0  0  0  0  0
   -5.5194  -46.0063    9.4887 N   0  0  0  0  0  0  0  0  0  0  0  0
   -5.0107  -45.3807    8.3736 C   0  0  0  0  0  0  0  0  0  0  0  0
   -3.6231  -45.7297    8.3012 C   0  0  0  0  0  0  0  0  0  0  0  0
   -3.3547  -46.5895    9.4315 C   0  0  0  0  0  0  0  0  0  0  0  0
    4.4539  -48.1514    7.2515 H   0  0  0  0  0  0  0  0  0  0  0  0
    1.2777  -49.0901    7.6474 H   0  0  0  0  0  0  0  0  0  0  0  0
   -1.1203  -52.5160    6.4348 H   0  0  0  0  0  0  0  0  0  0  0  0
   -3.4285  -51.8632    5.7286 H   0  0  0  0  0  0  0  0  0  0  0  0
   -3.9277  -49.4886    5.1805 H   0  0  0  0  0  0  0  0  0  0  0  0
   -2.1565  -47.7664    5.3372 H   0  0  0  0  0  0  0  0  0  0  0  0
    1.8021  -46.7504    5.5246 H   0  0  0  0  0  0  0  0  0  0  0  0
    0.0352  -46.5536    5.2676 H   0  0  0  0  0  0  0  0  0  0  0  0
    1.3685  -46.5890    8.0232 H   0  0  0  0  0  0  0  0  0  0  0  0
    1.0304  -45.0895    7.0937 H   0  0  0  0  0  0  0  0  0  0  0  0
   -1.1027  -47.1125    7.9797 H   0  0  0  0  0  0  0  0  0  0  0  0
   -0.7210  -45.5778    8.8315 H   0  0  0  0  0  0  0  0  0  0  0  0
   -6.6811  -44.3022    7.5206 H   0  0  0  0  0  0  0  0  0  0  0  0
   -5.3594  -43.4293    5.6009 H   0  0  0  0  0  0  0  0  0  0  0  0
   -2.9579  -43.9776    5.4123 H   0  0  0  0  0  0  0  0  0  0  0  0
   -4.6640  -47.3433   11.0043 H   0  0  0  0  0  0  0  0  0  0  0  0
   -2.5973  -46.1290   10.0829 H   0  0  0  0  0  0  0  0  0  0  0  0
   -2.9922  -47.5676    9.0823 H   0  0  0  0  0  0  0  0  0  0  0  0
  1  2  2  0  0  0  0
  2  3  1  0  0  0  0
  2  4  1  0  0  0  0
  4 11  1  0  0  0  0
  4 20  1  0  0  0  0
  5  6  1  0  0  0  0
  5 10  1  0  0  0  0
  5 20  2  0  0  0  0
  6  7  2  0  0  0  0
  7  8  1  0  0  0  0
  8  9  2  0  0  0  0
  9 10  1  0  0  0  0
 10 11  2  0  0  0  0
 11 12  1  0  0  0  0
 12 13  1  0  0  0  0
 13 14  1  0  0  0  0
 14 15  1  0  0  0  0
 15 16  1  0  0  0  0
 16 19  2  0  0  0  0
 16 24  1  0  0  0  0
 17 18  2  0  0  0  0
 17 23  1  0  0  0  0
 18 19  1  0  0  0  0
 21 22  2  0  0  0  0
 21 25  1  0  0  0  0
 22 23  1  0  0  0  0
 23 24  2  0  0  0  0
 24 25  1  0  0  0  0
  3 26  1  0  0  0  0
  4 27  1  0  0  0  0
  6 28  1  0  0  0  0
  7 29  1  0  0  0  0
  8 30  1  0  0  0  0
  9 31  1  0  0  0  0
 12 32  1  0  0  0  0
 12 33  1  0  0  0  0
 13 34  1  0  0  0  0
 13 35  1  0  0  0  0
 14 36  1  0  0  0  0
 14 37  1  0  0  0  0
 17 38  1  0  0  0  0
 18 39  1  0  0  0  0
 19 40  1  0  0  0  0
 21 41  1  0  0  0  0
 25 42  1  0  0  0  0
 25 43  1  0  0  0  0
M  END
> <r_user_dG.exp>
-6.6626190630157

$$$$
48
  -OEChem-05162309453D
 Structure written by MMmdl.
 43 46  0     1  0  0  0  0  0999 V2000
    3.5962  -50.2382    7.2860 O   0  0  0  0  0  0  0  0  0  0  0  0
    2.9915  -49.1832    6.9785 C   0  0  0  0  0  0  0  0  0  0  0  0
    3.5468  -48.0563    6.9856 O   0  0  0  0  0  0  0  0  0  0  0  0
    1.5667  -49.2814    6.6034 C   0  0  3  0  0  0  0  0  0  0  0  0
   -0.3493  -50.4961    6.2933 C   0  0  0  0  0  0  0  0  0  0  0  0
   -1.3483  -51.4866    6.2008 C   0  0  0  0  0  0  0  0  0  0  0  0
   -2.6508  -51.1171    5.7985 C   0  0  0  0  0  0  0  0  0  0  0  0
   -2.9320  -49.7715    5.4886 C   0  0  0  0  0  0  0  0  0  0  0  0
   -1.9224  -48.7928    5.5781 C   0  0  0  0  0  0  0  0  0  0  0  0
   -0.6057  -49.1301    5.9783 C   0  0  0  0  0  0  0  0  0  0  0  0
    0.6128  -48.3833    6.1734 C   0  0  0  0  0  0  0  0  0  0  0  0
    0.8068  -46.9172    5.9622 C   0  0  0  0  0  0  0  0  0  0  0  0
    0.7034  -46.1229    7.2813 C   0  0  0  0  0  0  0  0  0  0  0  0
   -0.7224  -46.0877    7.8568 C   0  0  0  0  0  0  0  0  0  0  0  0
   -1.5391  -45.3745    6.9378 O   0  0  0  0  0  0  0  0  0  0  0  0
   -2.8810  -45.1822    7.1989 C   0  0  0  0  0  0  0  0  0  0  0  0
   -5.6349  -44.5517    7.4221 C   0  0  0  0  0  0  0  0  0  0  0  0
   -4.8882  -44.0528    6.3462 C   0  0  0  0  0  0  0  0  0  0  0  0
   -3.5272  -44.3675    6.2431 C   0  0  0  0  0  0  0  0  0  0  0  0
    0.9807  -50.5349    6.6696 N   0  0  0  0  0  0  0  0  0  0  0  0
   -4.5301  -46.7432   10.1164 C   0  0  0  0  0  0  0  0  0  0  0  0
   -5.5194  -46.0063    9.4887 N   0  0  0  0  0  0  0  0  0  0  0  0
   -5.0107  -45.3807    8.3736 C   0  0  0  0  0  0  0  0  0  0  0  0
   -3.6231  -45.7297    8.3012 C   0  0  0  0  0  0  0  0  0  0  0  0
   -3.3547  -46.5895    9.4315 C   0  0  0  0  0  0  0  0  0  0  0  0
    4.4539  -48.1514    7.2515 H   0  0  0  0  0  0  0  0  0  0  0  0
    1.2777  -49.0901    7.6474 H   0  0  0  0  0  0  0  0  0  0  0  0
   -1.1203  -52.5160    6.4348 H   0  0  0  0  0  0  0  0  0  0  0  0
   -3.4285  -51.8632    5.7286 H   0  0  0  0  0  0  0  0  0  0  0  0
   -3.9277  -49.4886    5.1805 H   0  0  0  0  0  0  0  0  0  0  0  0
   -2.1565  -47.7664    5.3372 H   0  0  0  0  0  0  0  0  0  0  0  0
    1.8021  -46.7504    5.5246 H   0  0  0  0  0  0  0  0  0  0  0  0
    0.0352  -46.5536    5.2676 H   0  0  0  0  0  0  0  0  0  0  0  0
    1.3685  -46.5890    8.0232 H   0  0  0  0  0  0  0  0  0  0  0  0
    1.0304  -45.0895    7.0937 H   0  0  0  0  0  0  0  0  0  0  0  0
   -1.1027  -47.1125    7.9797 H   0  0  0  0  0  0  0  0  0  0  0  0
   -0.7210  -45.5778    8.8315 H   0  0  0  0  0  0  0  0  0  0  0  0
   -6.6811  -44.3022    7.5206 H   0  0  0  0  0  0  0  0  0  0  0  0
   -5.3594  -43.4293    5.6009 H   0  0  0  0  0  0  0  0  0  0  0  0
   -2.9579  -43.9776    5.4123 H   0  0  0  0  0  0  0  0  0  0  0  0
   -4.4041  -46.3862   11.1492 H   0  0  0  0  0  0  0  0  0  0  0  0
   -4.8136  -47.8060   10.1278 H   0  0  0  0  0  0  0  0  0  0  0  0
   -2.4025  -47.0296    9.6884 H   0  0  0  0  0  0  0  0  0  0  0  0
  1  2  2  0  0  0  0
  2  3  1  0  0  0  0
  2  4  1  0  0  0  0
  4 11  1  0  0  0  0
  4 20  1  0  0  0  0
  5  6  1  0  0  0  0
  5 10  1  0  0  0  0
  5 20  2  0  0  0  0
  6  7  2  0  0  0  0
  7  8  1  0  0  0  0
  8  9  2  0  0  0  0
  9 10  1  0  0  0  0
 10 11  2  0  0  0  0
 11 12  1  0  0  0  0
 12 13  1  0  0  0  0
 13 14  1  0  0  0  0
 14 15  1  0  0  0  0
 15 16  1  0  0  0  0
 16 19  2  0  0  0  0
 16 24  1  0  0  0  0
 17 18  2  0  0  0  0
 17 23  1  0  0  0  0
 18 19  1  0  0  0  0
 21 22  1  0  0  0  0
 21 25  1  0  0  0  0
 22 23  2  0  0  0  0
 23 24  1  0  0  0  0
 24 25  2  0  0  0  0
  3 26  1  0  0  0  0
  4 27  1  0  0  0  0
  6 28  1  0  0  0  0
  7 29  1  0  0  0  0
  8 30  1  0  0  0  0
  9 31  1  0  0  0  0
 12 32  1  0  0  0  0
 12 33  1  0  0  0  0
 13 34  1  0  0  0  0
 13 35  1  0  0  0  0
 14 36  1  0  0  0  0
 14 37  1  0  0  0  0
 17 38  1  0  0  0  0
 18 39  1  0  0  0  0
 19 40  1  0  0  0  0
 21 41  1  0  0  0  0
 21 42  1  0  0  0  0
 25 43  1  0  0  0  0
M  END
> <r_user_dG.exp>
-6.6626190630157

$$$$
48
  -OEChem-05162309453D
 Structure written by MMmdl.
 43 46  0     1  0  0  0  0  0999 V2000
    3.5962  -50.2382    7.2860 O   0  0  0  0  0  0  0  0  0  0  0  0
    2.9915  -49.1832    6.9785 C   0  0  0  0  0  0  0  0  0  0  0  0
    3.5468  -48.0563    6.9856 O   0  0  0  0  0  0  0  0  0  0  0  0
    1.5667  -49.2814    6.6034 C   0  0  0  0  0  0  0  0  0  0  0  0
   -0.3493  -50.4961    6.2933 C   0  0  0  0  0  0  0  0  0  0  0  0
   -1.3483  -51.4866    6.2008 C   0  0  0  0  0  0  0  0  0  0  0  0
   -2.6508  -51.1171    5.7985 C   0  0  0  0  0  0  0  0  0  0  0  0
   -2.9320  -49.7715    5.4886 C   0  0  0  0  0  0  0  0  0  0  0  0
   -1.9224  -48.7928    5.5781 C   0  0  0  0  0  0  0  0  0  0  0  0
   -0.6057  -49.1301    5.9783 C   0  0  0  0  0  0  0  0  0  0  0  0
    0.6128  -48.3833    6.1734 C   0  0  0  0  0  0  0  0  0  0  0  0
    0.8068  -46.9172    5.9622 C   0  0  0  0  0  0  0  0  0  0  0  0
    0.7034  -46.1229    7.2813 C   0  0  0  0  0  0  0  0  0  0  0  0
   -0.7224  -46.0877    7.8568 C   0  0  0  0  0  0  0  0  0  0  0  0
   -1.5391  -45.3745    6.9378 O   0  0  0  0  0  0  0  0  0  0  0  0
   -2.8810  -45.1822    7.1989 C   0  0  0  0  0  0  0  0  0  0  0  0
   -5.6349  -44.5517    7.4221 C   0  0  0  0  0  0  0  0  0  0  0  0
   -4.8882  -44.0528    6.3462 C   0  0  0  0  0  0  0  0  0  0  0  0
   -3.5272  -44.3675    6.2431 C   0  0  0  0  0  0  0  0  0  0  0  0
    0.9807  -50.5349    6.6696 N   0  0  0  0  0  0  0  0  0  0  0  0
   -4.5301  -46.7432   10.1164 C   0  0  0  0  0  0  0  0  0  0  0  0
   -5.5194  -46.0063    9.4887 N   0  0  0  0  0  0  0  0  0  0  0  0
   -5.0107  -45.3807    8.3736 C   0  0  0  0  0  0  0  0  0  0  0  0
   -3.6231  -45.7297    8.3012 C   0  0  3  0  0  0  0  0  0  0  0  0
   -3.3547  -46.5895    9.4315 C   0  0  0  0  0  0  0  0  0  0  0  0
    4.4539  -48.1514    7.2515 H   0  0  0  0  0  0  0  0  0  0  0  0
   -1.1203  -52.5160    6.4348 H   0  0  0  0  0  0  0  0  0  0  0  0
   -3.4285  -51.8632    5.7286 H   0  0  0  0  0  0  0  0  0  0  0  0
   -3.9277  -49.4886    5.1805 H   0  0  0  0  0  0  0  0  0  0  0  0
   -2.1565  -47.7664    5.3372 H   0  0  0  0  0  0  0  0  0  0  0  0
    1.8021  -46.7504    5.5246 H   0  0  0  0  0  0  0  0  0  0  0  0
    0.0352  -46.5536    5.2676 H   0  0  0  0  0  0  0  0  0  0  0  0
    1.3685  -46.5890    8.0232 H   0  0  0  0  0  0  0  0  0  0  0  0
    1.0304  -45.0895    7.0937 H   0  0  0  0  0  0  0  0  0  0  0  0
   -1.1027  -47.1125    7.9797 H   0  0  0  0  0  0  0  0  0  0  0  0
   -0.7210  -45.5778    8.8315 H   0  0  0  0  0  0  0  0  0  0  0  0
   -6.6811  -44.3022    7.5206 H   0  0  0  0  0  0  0  0  0  0  0  0
   -5.3594  -43.4293    5.6009 H   0  0  0  0  0  0  0  0  0  0  0  0
   -2.9579  -43.9776    5.4123 H   0  0  0  0  0  0  0  0  0  0  0  0
    1.4602  -51.3650    6.9543 H   0  0  0  0  0  0  0  0  0  0  0  0
   -4.6640  -47.3433   11.0043 H   0  0  0  0  0  0  0  0  0  0  0  0
   -3.3694  -44.8493    8.9100 H   0  0  0  0  0  0  0  0  0  0  0  0
   -2.4025  -47.0296    9.6884 H   0  0  0  0  0  0  0  0  0  0  0  0
  1  2  2  0  0  0  0
  2  3  1  0  0  0  0
  2  4  1  0  0  0  0
  4 11  2  0  0  0  0
  4 20  1  0  0  0  0
  5  6  2  0  0  0  0
  5 10  1  0  0  0  0
  5 20  1  0  0  0  0
  6  7  1  0  0  0  0
  7  8  2  0  0  0  0
  8  9  1  0  0  0  0
  9 10  2  0  0  0  0
 10 11  1  0  0  0  0
 11 12  1  0  0  0  0
 12 13  1  0  0  0  0
 13 14  1  0  0  0  0
 14 15  1  0  0  0  0
 15 16  1  0  0  0  0
 16 19  2  0  0  0  0
 16 24  1  0  0  0  0
 17 18  2  0  0  0  0
 17 23  1  0  0  0  0
 18 19  1  0  0  0  0
 21 22  1  0  0  0  0
 21 25  2  0  0  0  0
 22 23  2  0  0  0  0
 23 24  1  0  0  0  0
 24 25  1  0  0  0  0
  3 26  1  0  0  0  0
  6 27  1  0  0  0  0
  7 28  1  0  0  0  0
  8 29  1  0  0  0  0
  9 30  1  0  0  0  0
 12 31  1  0  0  0  0
 12 32  1  0  0  0  0
 13 33  1  0  0  0  0
 13 34  1  0  0  0  0
 14 35  1  0  0  0  0
 14 36  1  0  0  0  0
 17 37  1  0  0  0  0
 18 38  1  0  0  0  0
 19 39  1  0  0  0  0
 20 40  1  0  0  0  0
 21 41  1  0  0  0  0
 24 42  1  0  0  0  0
 25 43  1  0  0  0  0
M  END
> <r_user_dG.exp>
-6.6626190630157

$$$$
48
  -OEChem-05162309453D
 Structure written by MMmdl.
 43 46  0     1  0  0  0  0  0999 V2000
    3.5962  -50.2382    7.2860 O   0  0  0  0  0  0  0  0  0  0  0  0
    2.9915  -49.1832    6.9785 C   0  0  0  0  0  0  0  0  0  0  0  0
    3.5468  -48.0563    6.9856 O   0  0  0  0  0  0  0  0  0  0  0  0
    1.5667  -49.2814    6.6034 C   0  0  0  0  0  0  0  0  0  0  0  0
   -0.3493  -50.4961    6.2933 C   0  0  0  0  0  0  0  0  0  0  0  0
   -1.3483  -51.4866    6.2008 C   0  0  0  0  0  0  0  0  0  0  0  0
   -2.6508  -51.1171    5.7985 C   0  0  0  0  0  0  0  0  0  0  0  0
   -2.9320  -49.7715    5.4886 C   0  0  0  0  0  0  0  0  0  0  0  0
   -1.9224  -48.7928    5.5781 C   0  0  0  0  0  0  0  0  0  0  0  0
   -0.6057  -49.1301    5.9783 C   0  0  0  0  0  0  0  0  0  0  0  0
    0.6128  -48.3833    6.1734 C   0  0  0  0  0  0  0  0  0  0  0  0
    0.8068  -46.9172    5.9622 C   0  0  0  0  0  0  0  0  0  0  0  0
    0.7034  -46.1229    7.2813 C   0  0  0  0  0  0  0  0  0  0  0  0
   -0.7224  -46.0877    7.8568 C   0  0  0  0  0  0  0  0  0  0  0  0
   -1.5391  -45.3745    6.9378 O   0  0  0  0  0  0  0  0  0  0  0  0
   -2.8810  -45.1822    7.1989 C   0  0  0  0  0  0  0  0  0  0  0  0
   -5.6349  -44.5517    7.4221 C   0  0  0  0  0  0  0  0  0  0  0  0
   -4.8882  -44.0528    6.3462 C   0  0  0  0  0  0  0  0  0  0  0  0
   -3.5272  -44.3675    6.2431 C   0  0  0  0  0  0  0  0  0  0  0  0
    0.9807  -50.5349    6.6696 N   0  0  0  0  0  0  0  0  0  0  0  0
   -4.5301  -46.7432   10.1164 C   0  0  0  0  0  0  0  0  0  0  0  0
   -5.5194  -46.0063    9.4887 N   0  0  0  0  0  0  0  0  0  0  0  0
   -5.0107  -45.3807    8.3736 C   0  0  3  0  0  0  0  0  0  0  0  0
   -3.6231  -45.7297    8.3012 C   0  0  0  0  0  0  0  0  0  0  0  0
   -3.3547  -46.5895    9.4315 C   0  0  0  0  0  0  0  0  0  0  0  0
    4.4539  -48.1514    7.2515 H   0  0  0  0  0  0  0  0  0  0  0  0
   -1.1203  -52.5160    6.4348 H   0  0  0  0  0  0  0  0  0  0  0  0
   -3.4285  -51.8632    5.7286 H   0  0  0  0  0  0  0  0  0  0  0  0
   -3.9277  -49.4886    5.1805 H   0  0  0  0  0  0  0  0  0  0  0  0
   -2.1565  -47.7664    5.3372 H   0  0  0  0  0  0  0  0  0  0  0  0
    1.8021  -46.7504    5.5246 H   0  0  0  0  0  0  0  0  0  0  0  0
    0.0352  -46.5536    5.2676 H   0  0  0  0  0  0  0  0  0  0  0  0
    1.3685  -46.5890    8.0232 H   0  0  0  0  0  0  0  0  0  0  0  0
    1.0304  -45.0895    7.0937 H   0  0  0  0  0  0  0  0  0  0  0  0
   -1.1027  -47.1125    7.9797 H   0  0  0  0  0  0  0  0  0  0  0  0
   -0.7210  -45.5778    8.8315 H   0  0  0  0  0  0  0  0  0  0  0  0
   -6.6811  -44.3022    7.5206 H   0  0  0  0  0  0  0  0  0  0  0  0
   -5.3594  -43.4293    5.6009 H   0  0  0  0  0  0  0  0  0  0  0  0
   -2.9579  -43.9776    5.4123 H   0  0  0  0  0  0  0  0  0  0  0  0
    1.4602  -51.3650    6.9543 H   0  0  0  0  0  0  0  0  0  0  0  0
   -4.6640  -47.3433   11.0043 H   0  0  0  0  0  0  0  0  0  0  0  0
   -4.7593  -44.4984    8.9806 H   0  0  0  0  0  0  0  0  0  0  0  0
   -2.4025  -47.0296    9.6884 H   0  0  0  0  0  0  0  0  0  0  0  0
  1  2  2  0  0  0  0
  2  3  1  0  0  0  0
  2  4  1  0  0  0  0
  4 11  2  0  0  0  0
  4 20  1  0  0  0  0
  5  6  2  0  0  0  0
  5 10  1  0  0  0  0
  5 20  1  0  0  0  0
  6  7  1  0  0  0  0
  7  8  2  0  0  0  0
  8  9  1  0  0  0  0
  9 10  2  0  0  0  0
 10 11  1  0  0  0  0
 11 12  1  0  0  0  0
 12 13  1  0  0  0  0
 13 14  1  0  0  0  0
 14 15  1  0  0  0  0
 15 16  1  0  0  0  0
 16 19  2  0  0  0  0
 16 24  1  0  0  0  0
 17 18  2  0  0  0  0
 17 23  1  0  0  0  0
 18 19  1  0  0  0  0
 21 22  2  0  0  0  0
 21 25  1  0  0  0  0
 22 23  1  0  0  0  0
 23 24  1  0  0  0  0
 24 25  2  0  0  0  0
  3 26  1  0  0  0  0
  6 27  1  0  0  0  0
  7 28  1  0  0  0  0
  8 29  1  0  0  0  0
  9 30  1  0  0  0  0
 12 31  1  0  0  0  0
 12 32  1  0  0  0  0
 13 33  1  0  0  0  0
 13 34  1  0  0  0  0
 14 35  1  0  0  0  0
 14 36  1  0  0  0  0
 17 37  1  0  0  0  0
 18 38  1  0  0  0  0
 19 39  1  0  0  0  0
 20 40  1  0  0  0  0
 21 41  1  0  0  0  0
 23 42  1  0  0  0  0
 25 43  1  0  0  0  0
M  END
> <r_user_dG.exp>
-6.6626190630157

$$$$
48
  -OEChem-05162309453D
 Structure written by MMmdl.
 43 46  0     1  0  0  0  0  0999 V2000
    3.5962  -50.2382    7.2860 O   0  0  0  0  0  0  0  0  0  0  0  0
    2.9915  -49.1832    6.9785 C   0  0  0  0  0  0  0  0  0  0  0  0
    3.5468  -48.0563    6.9856 O   0  0  0  0  0  0  0  0  0  0  0  0
    1.5667  -49.2814    6.6034 C   0  0  0  0  0  0  0  0  0  0  0  0
   -0.3493  -50.4961    6.2933 C   0  0  0  0  0  0  0  0  0  0  0  0
   -1.3483  -51.4866    6.2008 C   0  0  0  0  0  0  0  0  0  0  0  0
   -2.6508  -51.1171    5.7985 C   0  0  0  0  0  0  0  0  0  0  0  0
   -2.9320  -49.7715    5.4886 C   0  0  0  0  0  0  0  0  0  0  0  0
   -1.9224  -48.7928    5.5781 C   0  0  0  0  0  0  0  0  0  0  0  0
   -0.6057  -49.1301    5.9783 C   0  0  0  0  0  0  0  0  0  0  0  0
    0.6128  -48.3833    6.1734 C   0  0  0  0  0  0  0  0  0  0  0  0
    0.8068  -46.9172    5.9622 C   0  0  0  0  0  0  0  0  0  0  0  0
    0.7034  -46.1229    7.2813 C   0  0  0  0  0  0  0  0  0  0  0  0
   -0.7224  -46.0877    7.8568 C   0  0  0  0  0  0  0  0  0  0  0  0
   -1.5391  -45.3745    6.9378 O   0  0  0  0  0  0  0  0  0  0  0  0
   -2.8810  -45.1822    7.1989 C   0  0  3  0  0  0  0  0  0  0  0  0
   -5.6349  -44.5517    7.4221 C   0  0  0  0  0  0  0  0  0  0  0  0
   -4.8882  -44.0528    6.3462 C   0  0  0  0  0  0  0  0  0  0  0  0
   -3.5272  -44.3675    6.2431 C   0  0  0  0  0  0  0  0  0  0  0  0
    0.9807  -50.5349    6.6696 N   0  0  0  0  0  0  0  0  0  0  0  0
   -4.5301  -46.7432   10.1164 C   0  0  0  0  0  0  0  0  0  0  0  0
   -5.5194  -46.0063    9.4887 N   0  0  0  0  0  0  0  0  0  0  0  0
   -5.0107  -45.3807    8.3736 C   0  0  0  0  0  0  0  0  0  0  0  0
   -3.6231  -45.7297    8.3012 C   0  0  0  0  0  0  0  0  0  0  0  0
   -3.3547  -46.5895    9.4315 C   0  0  0  0  0  0  0  0  0  0  0  0
    4.4539  -48.1514    7.2515 H   0  0  0  0  0  0  0  0  0  0  0  0
   -1.1203  -52.5160    6.4348 H   0  0  0  0  0  0  0  0  0  0  0  0
   -3.4285  -51.8632    5.7286 H   0  0  0  0  0  0  0  0  0  0  0  0
   -3.9277  -49.4886    5.1805 H   0  0  0  0  0  0  0  0  0  0  0  0
   -2.1565  -47.7664    5.3372 H   0  0  0  0  0  0  0  0  0  0  0  0
    1.8021  -46.7504    5.5246 H   0  0  0  0  0  0  0  0  0  0  0  0
    0.0352  -46.5536    5.2676 H   0  0  0  0  0  0  0  0  0  0  0  0
    1.3685  -46.5890    8.0232 H   0  0  0  0  0  0  0  0  0  0  0  0
    1.0304  -45.0895    7.0937 H   0  0  0  0  0  0  0  0  0  0  0  0
   -1.1027  -47.1125    7.9797 H   0  0  0  0  0  0  0  0  0  0  0  0
   -0.7210  -45.5778    8.8315 H   0  0  0  0  0  0  0  0  0  0  0  0
   -2.6400  -44.2924    7.7991 H   0  0  0  0  0  0  0  0  0  0  0  0
   -6.6811  -44.3022    7.5206 H   0  0  0  0  0  0  0  0  0  0  0  0
   -5.3594  -43.4293    5.6009 H   0  0  0  0  0  0  0  0  0  0  0  0
   -2.9579  -43.9776    5.4123 H   0  0  0  0  0  0  0  0  0  0  0  0
    1.4602  -51.3650    6.9543 H   0  0  0  0  0  0  0  0  0  0  0  0
   -4.6640  -47.3433   11.0043 H   0  0  0  0  0  0  0  0  0  0  0  0
   -2.4025  -47.0296    9.6884 H   0  0  0  0  0  0  0  0  0  0  0  0
  1  2  2  0  0  0  0
  2  3  1  0  0  0  0
  2  4  1  0  0  0  0
  4 11  2  0  0  0  0
  4 20  1  0  0  0  0
  5  6  2  0  0  0  0
  5 10  1  0  0  0  0
  5 20  1  0  0  0  0
  6  7  1  0  0  0  0
  7  8  2  0  0  0  0
  8  9  1  0  0  0  0
  9 10  2  0  0  0  0
 10 11  1  0  0  0  0
 11 12  1  0  0  0  0
 12 13  1  0  0  0  0
 13 14  1  0  0  0  0
 14 15  1  0  0  0  0
 15 16  1  0  0  0  0
 16 19  1  0  0  0  0
 16 24  1  0  0  0  0
 17 18  1  0  0  0  0
 17 23  2  0  0  0  0
 18 19  2  0  0  0  0
 21 22  2  0  0  0  0
 21 25  1  0  0  0  0
 22 23  1  0  0  0  0
 23 24  1  0  0  0  0
 24 25  2  0  0  0  0
  3 26  1  0  0  0  0
  6 27  1  0  0  0  0
  7 28  1  0  0  0  0
  8 29  1  0  0  0  0
  9 30  1  0  0  0  0
 12 31  1  0  0  0  0
 12 32  1  0  0  0  0
 13 33  1  0  0  0  0
 13 34  1  0  0  0  0
 14 35  1  0  0  0  0
 14 36  1  0  0  0  0
 16 37  1  0  0  0  0
 17 38  1  0  0  0  0
 18 39  1  0  0  0  0
 19 40  1  0  0  0  0
 20 41  1  0  0  0  0
 21 42  1  0  0  0  0
 25 43  1  0  0  0  0
M  END
> <r_user_dG.exp>
-6.6626190630157

$$$$
48
  -OEChem-05162309453D
 Structure written by MMmdl.
 43 46  0     0  0  0  0  0  0999 V2000
    3.5962  -50.2382    7.2860 O   0  0  0  0  0  0  0  0  0  0  0  0
    2.9915  -49.1832    6.9785 C   0  0  0  0  0  0  0  0  0  0  0  0
    3.5468  -48.0563    6.9856 O   0  0  0  0  0  0  0  0  0  0  0  0
    1.5667  -49.2814    6.6034 C   0  0  0  0  0  0  0  0  0  0  0  0
   -0.3493  -50.4961    6.2933 C   0  0  0  0  0  0  0  0  0  0  0  0
   -1.3483  -51.4866    6.2008 C   0  0  0  0  0  0  0  0  0  0  0  0
   -2.6508  -51.1171    5.7985 C   0  0  0  0  0  0  0  0  0  0  0  0
   -2.9320  -49.7715    5.4886 C   0  0  0  0  0  0  0  0  0  0  0  0
   -1.9224  -48.7928    5.5781 C   0  0  0  0  0  0  0  0  0  0  0  0
   -0.6057  -49.1301    5.9783 C   0  0  0  0  0  0  0  0  0  0  0  0
    0.6128  -48.3833    6.1734 C   0  0  0  0  0  0  0  0  0  0  0  0
    0.8068  -46.9172    5.9622 C   0  0  0  0  0  0  0  0  0  0  0  0
    0.7034  -46.1229    7.2813 C   0  0  0  0  0  0  0  0  0  0  0  0
   -0.7224  -46.0877    7.8568 C   0  0  0  0  0  0  0  0  0  0  0  0
   -1.5391  -45.3745    6.9378 O   0  0  0  0  0  0  0  0  0  0  0  0
   -2.8810  -45.1822    7.1989 C   0  0  0  0  0  0  0  0  0  0  0  0
   -5.6349  -44.5517    7.4221 C   0  0  0  0  0  0  0  0  0  0  0  0
   -4.8882  -44.0528    6.3462 C   0  0  0  0  0  0  0  0  0  0  0  0
   -3.5272  -44.3675    6.2431 C   0  0  0  0  0  0  0  0  0  0  0  0
    0.9807  -50.5349    6.6696 N   0  0  0  0  0  0  0  0  0  0  0  0
   -4.5301  -46.7432   10.1164 C   0  0  0  0  0  0  0  0  0  0  0  0
   -5.5194  -46.0063    9.4887 N   0  0  0  0  0  0  0  0  0  0  0  0
   -5.0107  -45.3807    8.3736 C   0  0  0  0  0  0  0  0  0  0  0  0
   -3.6231  -45.7297    8.3012 C   0  0  0  0  0  0  0  0  0  0  0  0
   -3.3547  -46.5895    9.4315 C   0  0  0  0  0  0  0  0  0  0  0  0
    4.4539  -48.1514    7.2515 H   0  0  0  0  0  0  0  0  0  0  0  0
   -1.1203  -52.5160    6.4348 H   0  0  0  0  0  0  0  0  0  0  0  0
   -3.4285  -51.8632    5.7286 H   0  0  0  0  0  0  0  0  0  0  0  0
   -3.9277  -49.4886    5.1805 H   0  0  0  0  0  0  0  0  0  0  0  0
   -2.1565  -47.7664    5.3372 H   0  0  0  0  0  0  0  0  0  0  0  0
    1.8021  -46.7504    5.5246 H   0  0  0  0  0  0  0  0  0  0  0  0
    0.0352  -46.5536    5.2676 H   0  0  0  0  0  0  0  0  0  0  0  0
    1.3685  -46.5890    8.0232 H   0  0  0  0  0  0  0  0  0  0  0  0
    1.0304  -45.0895    7.0937 H   0  0  0  0  0  0  0  0  0  0  0  0
   -1.1027  -47.1125    7.9797 H   0  0  0  0  0  0  0  0  0  0  0  0
   -0.7210  -45.5778    8.8315 H   0  0  0  0  0  0  0  0  0  0  0  0
   -6.6811  -44.3022    7.5206 H   0  0  0  0  0  0  0  0  0  0  0  0
   -5.3706  -44.4163    5.4269 H   0  0  0  0  0  0  0  0  0  0  0  0
   -4.9600  -42.9560    6.3889 H   0  0  0  0  0  0  0  0  0  0  0  0
   -2.9579  -43.9776    5.4123 H   0  0  0  0  0  0  0  0  0  0  0  0
    1.4602  -51.3650    6.9543 H   0  0  0  0  0  0  0  0  0  0  0  0
   -4.6640  -47.3433   11.0043 H   0  0  0  0  0  0  0  0  0  0  0  0
   -2.4025  -47.0296    9.6884 H   0  0  0  0  0  0  0  0  0  0  0  0
  1  2  2  0  0  0  0
  2  3  1  0  0  0  0
  2  4  1  0  0  0  0
  4 11  2  0  0  0  0
  4 20  1  0  0  0  0
  5  6  2  0  0  0  0
  5 10  1  0  0  0  0
  5 20  1  0  0  0  0
  6  7  1  0  0  0  0
  7  8  2  0  0  0  0
  8  9  1  0  0  0  0
  9 10  2  0  0  0  0
 10 11  1  0  0  0  0
 11 12  1  0  0  0  0
 12 13  1  0  0  0  0
 13 14  1  0  0  0  0
 14 15  1  0  0  0  0
 15 16  1  0  0  0  0
 16 19  2  0  0  0  0
 16 24  1  0  0  0  0
 17 18  1  0  0  0  0
 17 23  2  0  0  0  0
 18 19  1  0  0  0  0
 21 22  2  0  0  0  0
 21 25  1  0  0  0  0
 22 23  1  0  0  0  0
 23 24  1  0  0  0  0
 24 25  2  0  0  0  0
  3 26  1  0  0  0  0
  6 27  1  0  0  0  0
  7 28  1  0  0  0  0
  8 29  1  0  0  0  0
  9 30  1  0  0  0  0
 12 31  1  0  0  0  0
 12 32  1  0  0  0  0
 13 33  1  0  0  0  0
 13 34  1  0  0  0  0
 14 35  1  0  0  0  0
 14 36  1  0  0  0  0
 17 37  1  0  0  0  0
 18 38  1  0  0  0  0
 18 39  1  0  0  0  0
 19 40  1  0  0  0  0
 20 41  1  0  0  0  0
 21 42  1  0  0  0  0
 25 43  1  0  0  0  0
M  END
> <r_user_dG.exp>
-6.6626190630157

$$$$
48
  -OEChem-05162309453D
 Structure written by MMmdl.
 43 46  0     0  0  0  0  0  0999 V2000
    3.5962  -50.2382    7.2860 O   0  0  0  0  0  0  0  0  0  0  0  0
    2.9915  -49.1832    6.9785 C   0  0  0  0  0  0  0  0  0  0  0  0
    3.5468  -48.0563    6.9856 O   0  0  0  0  0  0  0  0  0  0  0  0
    1.5667  -49.2814    6.6034 C   0  0  0  0  0  0  0  0  0  0  0  0
   -0.3493  -50.4961    6.2933 C   0  0  0  0  0  0  0  0  0  0  0  0
   -1.3483  -51.4866    6.2008 C   0  0  0  0  0  0  0  0  0  0  0  0
   -2.6508  -51.1171    5.7985 C   0  0  0  0  0  0  0  0  0  0  0  0
   -2.9320  -49.7715    5.4886 C   0  0  0  0  0  0  0  0  0  0  0  0
   -1.9224  -48.7928    5.5781 C   0  0  0  0  0  0  0  0  0  0  0  0
   -0.6057  -49.1301    5.9783 C   0  0  0  0  0  0  0  0  0  0  0  0
    0.6128  -48.3833    6.1734 C   0  0  0  0  0  0  0  0  0  0  0  0
    0.8068  -46.9172    5.9622 C   0  0  0  0  0  0  0  0  0  0  0  0
    0.7034  -46.1229    7.2813 C   0  0  0  0  0  0  0  0  0  0  0  0
   -0.7224  -46.0877    7.8568 C   0  0  0  0  0  0  0  0  0  0  0  0
   -1.5391  -45.3745    6.9378 O   0  0  0  0  0  0  0  0  0  0  0  0
   -2.8810  -45.1822    7.1989 C   0  0  0  0  0  0  0  0  0  0  0  0
   -5.6349  -44.5517    7.4221 C   0  0  0  0  0  0  0  0  0  0  0  0
   -4.8882  -44.0528    6.3462 C   0  0  0  0  0  0  0  0  0  0  0  0
   -3.5272  -44.3675    6.2431 C   0  0  0  0  0  0  0  0  0  0  0  0
    0.9807  -50.5349    6.6696 N   0  0  0  0  0  0  0  0  0  0  0  0
   -4.5301  -46.7432   10.1164 C   0  0  0  0  0  0  0  0  0  0  0  0
   -5.5194  -46.0063    9.4887 N   0  0  0  0  0  0  0  0  0  0  0  0
   -5.0107  -45.3807    8.3736 C   0  0  0  0  0  0  0  0  0  0  0  0
   -3.6231  -45.7297    8.3012 C   0  0  0  0  0  0  0  0  0  0  0  0
   -3.3547  -46.5895    9.4315 C   0  0  0  0  0  0  0  0  0  0  0  0
    4.4539  -48.1514    7.2515 H   0  0  0  0  0  0  0  0  0  0  0  0
   -1.1203  -52.5160    6.4348 H   0  0  0  0  0  0  0  0  0  0  0  0
   -3.4285  -51.8632    5.7286 H   0  0  0  0  0  0  0  0  0  0  0  0
   -3.9277  -49.4886    5.1805 H   0  0  0  0  0  0  0  0  0  0  0  0
   -2.1565  -47.7664    5.3372 H   0  0  0  0  0  0  0  0  0  0  0  0
    1.8021  -46.7504    5.5246 H   0  0  0  0  0  0  0  0  0  0  0  0
    0.0352  -46.5536    5.2676 H   0  0  0  0  0  0  0  0  0  0  0  0
    1.3685  -46.5890    8.0232 H   0  0  0  0  0  0  0  0  0  0  0  0
    1.0304  -45.0895    7.0937 H   0  0  0  0  0  0  0  0  0  0  0  0
   -1.1027  -47.1125    7.9797 H   0  0  0  0  0  0  0  0  0  0  0  0
   -0.7210  -45.5778    8.8315 H   0  0  0  0  0  0  0  0  0  0  0  0
   -6.6811  -44.3022    7.5206 H   0  0  0  0  0  0  0  0  0  0  0  0
   -5.3594  -43.4293    5.6009 H   0  0  0  0  0  0  0  0  0  0  0  0
   -2.9873  -43.4091    6.2373 H   0  0  0  0  0  0  0  0  0  0  0  0
   -3.3976  -44.8673    5.2718 H   0  0  0  0  0  0  0  0  0  0  0  0
    1.4602  -51.3650    6.9543 H   0  0  0  0  0  0  0  0  0  0  0  0
   -4.6640  -47.3433   11.0043 H   0  0  0  0  0  0  0  0  0  0  0  0
   -2.4025  -47.0296    9.6884 H   0  0  0  0  0  0  0  0  0  0  0  0
  1  2  2  0  0  0  0
  2  3  1  0  0  0  0
  2  4  1  0  0  0  0
  4 11  2  0  0  0  0
  4 20  1  0  0  0  0
  5  6  2  0  0  0  0
  5 10  1  0  0  0  0
  5 20  1  0  0  0  0
  6  7  1  0  0  0  0
  7  8  2  0  0  0  0
  8  9  1  0  0  0  0
  9 10  2  0  0  0  0
 10 11  1  0  0  0  0
 11 12  1  0  0  0  0
 12 13  1  0  0  0  0
 13 14  1  0  0  0  0
 14 15  1  0  0  0  0
 15 16  1  0  0  0  0
 16 19  1  0  0  0  0
 16 24  2  0  0  0  0
 17 18  2  0  0  0  0
 17 23  1  0  0  0  0
 18 19  1  0  0  0  0
 21 22  1  0  0  0  0
 21 25  2  0  0  0  0
 22 23  2  0  0  0  0
 23 24  1  0  0  0  0
 24 25  1  0  0  0  0
  3 26  1  0  0  0  0
  6 27  1  0  0  0  0
  7 28  1  0  0  0  0
  8 29  1  0  0  0  0
  9 30  1  0  0  0  0
 12 31  1  0  0  0  0
 12 32  1  0  0  0  0
 13 33  1  0  0  0  0
 13 34  1  0  0  0  0
 14 35  1  0  0  0  0
 14 36  1  0  0  0  0
 17 37  1  0  0  0  0
 18 38  1  0  0  0  0
 19 39  1  0  0  0  0
 19 40  1  0  0  0  0
 20 41  1  0  0  0  0
 21 42  1  0  0  0  0
 25 43  1  0  0  0  0
M  END
> <r_user_dG.exp>
-6.6626190630157

$$$$
48
  -OEChem-05162309453D
 Structure written by MMmdl.
 43 46  0     0  0  0  0  0  0999 V2000
    3.5962  -50.2382    7.2860 O   0  0  0  0  0  0  0  0  0  0  0  0
    2.9915  -49.1832    6.9785 C   0  0  0  0  0  0  0  0  0  0  0  0
    3.5468  -48.0563    6.9856 O   0  0  0  0  0  0  0  0  0  0  0  0
    1.5667  -49.2814    6.6034 C   0  0  0  0  0  0  0  0  0  0  0  0
   -0.3493  -50.4961    6.2933 C   0  0  0  0  0  0  0  0  0  0  0  0
   -1.3483  -51.4866    6.2008 C   0  0  0  0  0  0  0  0  0  0  0  0
   -2.6508  -51.1171    5.7985 C   0  0  0  0  0  0  0  0  0  0  0  0
   -2.9320  -49.7715    5.4886 C   0  0  0  0  0  0  0  0  0  0  0  0
   -1.9224  -48.7928    5.5781 C   0  0  0  0  0  0  0  0  0  0  0  0
   -0.6057  -49.1301    5.9783 C   0  0  0  0  0  0  0  0  0  0  0  0
    0.6128  -48.3833    6.1734 C   0  0  0  0  0  0  0  0  0  0  0  0
    0.8068  -46.9172    5.9622 C   0  0  0  0  0  0  0  0  0  0  0  0
    0.7034  -46.1229    7.2813 C   0  0  0  0  0  0  0  0  0  0  0  0
   -0.7224  -46.0877    7.8568 C   0  0  0  0  0  0  0  0  0  0  0  0
   -1.5391  -45.3745    6.9378 O   0  0  0  0  0  0  0  0  0  0  0  0
   -2.8810  -45.1822    7.1989 C   0  0  0  0  0  0  0  0  0  0  0  0
   -5.6349  -44.5517    7.4221 C   0  0  0  0  0  0  0  0  0  0  0  0
   -4.8882  -44.0528    6.3462 C   0  0  0  0  0  0  0  0  0  0  0  0
   -3.5272  -44.3675    6.2431 C   0  0  0  0  0  0  0  0  0  0  0  0
    0.9807  -50.5349    6.6696 N   0  0  0  0  0  0  0  0  0  0  0  0
   -4.5301  -46.7432   10.1164 C   0  0  0  0  0  0  0  0  0  0  0  0
   -5.5194  -46.0063    9.4887 N   0  0  0  0  0  0  0  0  0  0  0  0
   -5.0107  -45.3807    8.3736 C   0  0  0  0  0  0  0  0  0  0  0  0
   -3.6231  -45.7297    8.3012 C   0  0  0  0  0  0  0  0  0  0  0  0
   -3.3547  -46.5895    9.4315 C   0  0  0  0  0  0  0  0  0  0  0  0
    4.4539  -48.1514    7.2515 H   0  0  0  0  0  0  0  0  0  0  0  0
   -1.1203  -52.5160    6.4348 H   0  0  0  0  0  0  0  0  0  0  0  0
   -3.4285  -51.8632    5.7286 H   0  0  0  0  0  0  0  0  0  0  0  0
   -3.9277  -49.4886    5.1805 H   0  0  0  0  0  0  0  0  0  0  0  0
   -2.1565  -47.7664    5.3372 H   0  0  0  0  0  0  0  0  0  0  0  0
    1.8021  -46.7504    5.5246 H   0  0  0  0  0  0  0  0  0  0  0  0
    0.0352  -46.5536    5.2676 H   0  0  0  0  0  0  0  0  0  0  0  0
    1.3685  -46.5890    8.0232 H   0  0  0  0  0  0  0  0  0  0  0  0
    1.0304  -45.0895    7.0937 H   0  0  0  0  0  0  0  0  0  0  0  0
   -1.1027  -47.1125    7.9797 H   0  0  0  0  0  0  0  0  0  0  0  0
   -0.7210  -45.5778    8.8315 H   0  0  0  0  0  0  0  0  0  0  0  0
   -6.0319  -43.6822    7.9666 H   0  0  0  0  0  0  0  0  0  0  0  0
   -6.4683  -45.1277    6.9935 H   0  0  0  0  0  0  0  0  0  0  0  0
   -5.3594  -43.4293    5.6009 H   0  0  0  0  0  0  0  0  0  0  0  0
   -2.9579  -43.9776    5.4123 H   0  0  0  0  0  0  0  0  0  0  0  0
    1.4602  -51.3650    6.9543 H   0  0  0  0  0  0  0  0  0  0  0  0
   -4.6640  -47.3433   11.0043 H   0  0  0  0  0  0  0  0  0  0  0  0
   -2.4025  -47.0296    9.6884 H   0  0  0  0  0  0  0  0  0  0  0  0
  1  2  2  0  0  0  0
  2  3  1  0  0  0  0
  2  4  1  0  0  0  0
  4 11  2  0  0  0  0
  4 20  1  0  0  0  0
  5  6  2  0  0  0  0
  5 10  1  0  0  0  0
  5 20  1  0  0  0  0
  6  7  1  0  0  0  0
  7  8  2  0  0  0  0
  8  9  1  0  0  0  0
  9 10  2  0  0  0  0
 10 11  1  0  0  0  0
 11 12  1  0  0  0  0
 12 13  1  0  0  0  0
 13 14  1  0  0  0  0
 14 15  1  0  0  0  0
 15 16  1  0  0  0  0
 16 19  1  0  0  0  0
 16 24  2  0  0  0  0
 17 18  1  0  0  0  0
 17 23  1  0  0  0  0
 18 19  2  0  0  0  0
 21 22  1  0  0  0  0
 21 25  2  0  0  0  0
 22 23  2  0  0  0  0
 23 24  1  0  0  0  0
 24 25  1  0  0  0  0
  3 26  1  0  0  0  0
  6 27  1  0  0  0  0
  7 28  1  0  0  0  0
  8 29  1  0  0  0  0
  9 30  1  0  0  0  0
 12 31  1  0  0  0  0
 12 32  1  0  0  0  0
 13 33  1  0  0  0  0
 13 34  1  0  0  0  0
 14 35  1  0  0  0  0
 14 36  1  0  0  0  0
 17 37  1  0  0  0  0
 17 38  1  0  0  0  0
 18 39  1  0  0  0  0
 19 40  1  0  0  0  0
 20 41  1  0  0  0  0
 21 42  1  0  0  0  0
 25 43  1  0  0  0  0
M  END
> <r_user_dG.exp>
-6.6626190630157

$$$$
48
  -OEChem-05162309453D
 Structure written by MMmdl.
 43 46  0     1  0  0  0  0  0999 V2000
    3.5962  -50.2382    7.2860 O   0  0  0  0  0  0  0  0  0  0  0  0
    2.9915  -49.1832    6.9785 C   0  0  0  0  0  0  0  0  0  0  0  0
    3.5468  -48.0563    6.9856 O   0  0  0  0  0  0  0  0  0  0  0  0
    1.5667  -49.2814    6.6034 C   0  0  0  0  0  0  0  0  0  0  0  0
   -0.3493  -50.4961    6.2933 C   0  0  0  0  0  0  0  0  0  0  0  0
   -1.3483  -51.4866    6.2008 C   0  0  0  0  0  0  0  0  0  0  0  0
   -2.6508  -51.1171    5.7985 C   0  0  0  0  0  0  0  0  0  0  0  0
   -2.9320  -49.7715    5.4886 C   0  0  0  0  0  0  0  0  0  0  0  0
   -1.9224  -48.7928    5.5781 C   0  0  0  0  0  0  0  0  0  0  0  0
   -0.6057  -49.1301    5.9783 C   0  0  3  0  0  0  0  0  0  0  0  0
    0.6128  -48.3833    6.1734 C   0  0  0  0  0  0  0  0  0  0  0  0
    0.8068  -46.9172    5.9622 C   0  0  0  0  0  0  0  0  0  0  0  0
    0.7034  -46.1229    7.2813 C   0  0  0  0  0  0  0  0  0  0  0  0
   -0.7224  -46.0877    7.8568 C   0  0  0  0  0  0  0  0  0  0  0  0
   -1.5391  -45.3745    6.9378 O   0  0  0  0  0  0  0  0  0  0  0  0
   -2.8810  -45.1822    7.1989 C   0  0  0  0  0  0  0  0  0  0  0  0
   -5.6349  -44.5517    7.4221 C   0  0  0  0  0  0  0  0  0  0  0  0
   -4.8882  -44.0528    6.3462 C   0  0  0  0  0  0  0  0  0  0  0  0
   -3.5272  -44.3675    6.2431 C   0  0  0  0  0  0  0  0  0  0  0  0
    0.9807  -50.5349    6.6696 N   0  0  0  0  0  0  0  0  0  0  0  0
   -4.5301  -46.7432   10.1164 C   0  0  0  0  0  0  0  0  0  0  0  0
   -5.5194  -46.0063    9.4887 N   0  0  0  0  0  0  0  0  0  0  0  0
   -5.0107  -45.3807    8.3736 C   0  0  0  0  0  0  0  0  0  0  0  0
   -3.6231  -45.7297    8.3012 C   0  0  0  0  0  0  0  0  0  0  0  0
   -3.3547  -46.5895    9.4315 C   0  0  0  0  0  0  0  0  0  0  0  0
    4.4539  -48.1514    7.2515 H   0  0  0  0  0  0  0  0  0  0  0  0
   -1.1203  -52.5160    6.4348 H   0  0  0  0  0  0  0  0  0  0  0  0
   -3.4285  -51.8632    5.7286 H   0  0  0  0  0  0  0  0  0  0  0  0
   -3.9277  -49.4886    5.1805 H   0  0  0  0  0  0  0  0  0  0  0  0
   -2.1565  -47.7664    5.3372 H   0  0  0  0  0  0  0  0  0  0  0  0
   -0.3296  -49.3153    4.9298 H   0  0  0  0  0  0  0  0  0  0  0  0
    1.8021  -46.7504    5.5246 H   0  0  0  0  0  0  0  0  0  0  0  0
    0.0352  -46.5536    5.2676 H   0  0  0  0  0  0  0  0  0  0  0  0
    1.3685  -46.5890    8.0232 H   0  0  0  0  0  0  0  0  0  0  0  0
    1.0304  -45.0895    7.0937 H   0  0  0  0  0  0  0  0  0  0  0  0
   -1.1027  -47.1125    7.9797 H   0  0  0  0  0  0  0  0  0  0  0  0
   -0.7210  -45.5778    8.8315 H   0  0  0  0  0  0  0  0  0  0  0  0
   -6.6811  -44.3022    7.5206 H   0  0  0  0  0  0  0  0  0  0  0  0
   -5.3594  -43.4293    5.6009 H   0  0  0  0  0  0  0  0  0  0  0  0
   -2.9579  -43.9776    5.4123 H   0  0  0  0  0  0  0  0  0  0  0  0
   -4.6640  -47.3433   11.0043 H   0  0  0  0  0  0  0  0  0  0  0  0
   -6.4671  -45.9383    9.8005 H   0  0  0  0  0  0  0  0  0  0  0  0
   -2.4025  -47.0296    9.6884 H   0  0  0  0  0  0  0  0  0  0  0  0
  1  2  2  0  0  0  0
  2  3  1  0  0  0  0
  2  4  1  0  0  0  0
  4 11  2  0  0  0  0
  4 20  1  0  0  0  0
  5  6  1  0  0  0  0
  5 10  1  0  0  0  0
  5 20  2  0  0  0  0
  6  7  2  0  0  0  0
  7  8  1  0  0  0  0
  8  9  2  0  0  0  0
  9 10  1  0  0  0  0
 10 11  1  0  0  0  0
 11 12  1  0  0  0  0
 12 13  1  0  0  0  0
 13 14  1  0  0  0  0
 14 15  1  0  0  0  0
 15 16  1  0  0  0  0
 16 19  2  0  0  0  0
 16 24  1  0  0  0  0
 17 18  2  0  0  0  0
 17 23  1  0  0  0  0
 18 19  1  0  0  0  0
 21 22  1  0  0  0  0
 21 25  2  0  0  0  0
 22 23  1  0  0  0  0
 23 24  2  0  0  0  0
 24 25  1  0  0  0  0
  3 26  1  0  0  0  0
  6 27  1  0  0  0  0
  7 28  1  0  0  0  0
  8 29  1  0  0  0  0
  9 30  1  0  0  0  0
 10 31  1  0  0  0  0
 12 32  1  0  0  0  0
 12 33  1  0  0  0  0
 13 34  1  0  0  0  0
 13 35  1  0  0  0  0
 14 36  1  0  0  0  0
 14 37  1  0  0  0  0
 17 38  1  0  0  0  0
 18 39  1  0  0  0  0
 19 40  1  0  0  0  0
 21 41  1  0  0  0  0
 22 42  1  0  0  0  0
 25 43  1  0  0  0  0
M  END
> <r_user_dG.exp>
-6.6626190630157

$$$$
48
  -OEChem-05162309453D
 Structure written by MMmdl.
 43 46  0     1  0  0  0  0  0999 V2000
    3.5962  -50.2382    7.2860 O   0  0  0  0  0  0  0  0  0  0  0  0
    2.9915  -49.1832    6.9785 C   0  0  0  0  0  0  0  0  0  0  0  0
    3.5468  -48.0563    6.9856 O   0  0  0  0  0  0  0  0  0  0  0  0
    1.5667  -49.2814    6.6034 C   0  0  0  0  0  0  0  0  0  0  0  0
   -0.3493  -50.4961    6.2933 C   0  0  3  0  0  0  0  0  0  0  0  0
   -1.3483  -51.4866    6.2008 C   0  0  0  0  0  0  0  0  0  0  0  0
   -2.6508  -51.1171    5.7985 C   0  0  0  0  0  0  0  0  0  0  0  0
   -2.9320  -49.7715    5.4886 C   0  0  0  0  0  0  0  0  0  0  0  0
   -1.9224  -48.7928    5.5781 C   0  0  0  0  0  0  0  0  0  0  0  0
   -0.6057  -49.1301    5.9783 C   0  0  0  0  0  0  0  0  0  0  0  0
    0.6128  -48.3833    6.1734 C   0  0  0  0  0  0  0  0  0  0  0  0
    0.8068  -46.9172    5.9622 C   0  0  0  0  0  0  0  0  0  0  0  0
    0.7034  -46.1229    7.2813 C   0  0  0  0  0  0  0  0  0  0  0  0
   -0.7224  -46.0877    7.8568 C   0  0  0  0  0  0  0  0  0  0  0  0
   -1.5391  -45.3745    6.9378 O   0  0  0  0  0  0  0  0  0  0  0  0
   -2.8810  -45.1822    7.1989 C   0  0  0  0  0  0  0  0  0  0  0  0
   -5.6349  -44.5517    7.4221 C   0  0  0  0  0  0  0  0  0  0  0  0
   -4.8882  -44.0528    6.3462 C   0  0  0  0  0  0  0  0  0  0  0  0
   -3.5272  -44.3675    6.2431 C   0  0  0  0  0  0  0  0  0  0  0  0
    0.9807  -50.5349    6.6696 N   0  0  0  0  0  0  0  0  0  0  0  0
   -4.5301  -46.7432   10.1164 C   0  0  0  0  0  0  0  0  0  0  0  0
   -5.5194  -46.0063    9.4887 N   0  0  0  0  0  0  0  0  0  0  0  0
   -5.0107  -45.3807    8.3736 C   0  0  0  0  0  0  0  0  0  0  0  0
   -3.6231  -45.7297    8.3012 C   0  0  0  0  0  0  0  0  0  0  0  0
   -3.3547  -46.5895    9.4315 C   0  0  0  0  0  0  0  0  0  0  0  0
    4.4539  -48.1514    7.2515 H   0  0  0  0  0  0  0  0  0  0  0  0
   -0.0617  -50.6854    5.2486 H   0  0  0  0  0  0  0  0  0  0  0  0
   -1.1203  -52.5160    6.4348 H   0  0  0  0  0  0  0  0  0  0  0  0
   -3.4285  -51.8632    5.7286 H   0  0  0  0  0  0  0  0  0  0  0  0
   -3.9277  -49.4886    5.1805 H   0  0  0  0  0  0  0  0  0  0  0  0
   -2.1565  -47.7664    5.3372 H   0  0  0  0  0  0  0  0  0  0  0  0
    1.8021  -46.7504    5.5246 H   0  0  0  0  0  0  0  0  0  0  0  0
    0.0352  -46.5536    5.2676 H   0  0  0  0  0  0  0  0  0  0  0  0
    1.3685  -46.5890    8.0232 H   0  0  0  0  0  0  0  0  0  0  0  0
    1.0304  -45.0895    7.0937 H   0  0  0  0  0  0  0  0  0  0  0  0
   -1.1027  -47.1125    7.9797 H   0  0  0  0  0  0  0  0  0  0  0  0
   -0.7210  -45.5778    8.8315 H   0  0  0  0  0  0  0  0  0  0  0  0
   -6.6811  -44.3022    7.5206 H   0  0  0  0  0  0  0  0  0  0  0  0
   -5.3594  -43.4293    5.6009 H   0  0  0  0  0  0  0  0  0  0  0  0
   -2.9579  -43.9776    5.4123 H   0  0  0  0  0  0  0  0  0  0  0  0
   -4.6640  -47.3433   11.0043 H   0  0  0  0  0  0  0  0  0  0  0  0
   -6.4671  -45.9383    9.8005 H   0  0  0  0  0  0  0  0  0  0  0  0
   -2.4025  -47.0296    9.6884 H   0  0  0  0  0  0  0  0  0  0  0  0
  1  2  2  0  0  0  0
  2  3  1  0  0  0  0
  2  4  1  0  0  0  0
  4 11  1  0  0  0  0
  4 20  2  0  0  0  0
  5  6  1  0  0  0  0
  5 10  1  0  0  0  0
  5 20  1  0  0  0  0
  6  7  2  0  0  0  0
  7  8  1  0  0  0  0
  8  9  2  0  0  0  0
  9 10  1  0  0  0  0
 10 11  2  0  0  0  0
 11 12  1  0  0  0  0
 12 13  1  0  0  0  0
 13 14  1  0  0  0  0
 14 15  1  0  0  0  0
 15 16  1  0  0  0  0
 16 19  2  0  0  0  0
 16 24  1  0  0  0  0
 17 18  2  0  0  0  0
 17 23  1  0  0  0  0
 18 19  1  0  0  0  0
 21 22  1  0  0  0  0
 21 25  2  0  0  0  0
 22 23  1  0  0  0  0
 23 24  2  0  0  0  0
 24 25  1  0  0  0  0
  3 26  1  0  0  0  0
  5 27  1  0  0  0  0
  6 28  1  0  0  0  0
  7 29  1  0  0  0  0
  8 30  1  0  0  0  0
  9 31  1  0  0  0  0
 12 32  1  0  0  0  0
 12 33  1  0  0  0  0
 13 34  1  0  0  0  0
 13 35  1  0  0  0  0
 14 36  1  0  0  0  0
 14 37  1  0  0  0  0
 17 38  1  0  0  0  0
 18 39  1  0  0  0  0
 19 40  1  0  0  0  0
 21 41  1  0  0  0  0
 22 42  1  0  0  0  0
 25 43  1  0  0  0  0
M  END
> <r_user_dG.exp>
-6.6626190630157

$$$$
48
  -OEChem-05162309453D
 Structure written by MMmdl.
 43 46  0     0  0  0  0  0  0999 V2000
    3.5962  -50.2382    7.2860 O   0  0  0  0  0  0  0  0  0  0  0  0
    2.9915  -49.1832    6.9785 C   0  0  0  0  0  0  0  0  0  0  0  0
    3.5468  -48.0563    6.9856 O   0  0  0  0  0  0  0  0  0  0  0  0
    1.5667  -49.2814    6.6034 C   0  0  0  0  0  0  0  0  0  0  0  0
   -0.3493  -50.4961    6.2933 C   0  0  0  0  0  0  0  0  0  0  0  0
   -1.3483  -51.4866    6.2008 C   0  0  0  0  0  0  0  0  0  0  0  0
   -2.6508  -51.1171    5.7985 C   0  0  0  0  0  0  0  0  0  0  0  0
   -2.9320  -49.7715    5.4886 C   0  0  0  0  0  0  0  0  0  0  0  0
   -1.9224  -48.7928    5.5781 C   0  0  0  0  0  0  0  0  0  0  0  0
   -0.6057  -49.1301    5.9783 C   0  0  0  0  0  0  0  0  0  0  0  0
    0.6128  -48.3833    6.1734 C   0  0  0  0  0  0  0  0  0  0  0  0
    0.8068  -46.9172    5.9622 C   0  0  0  0  0  0  0  0  0  0  0  0
    0.7034  -46.1229    7.2813 C   0  0  0  0  0  0  0  0  0  0  0  0
   -0.7224  -46.0877    7.8568 C   0  0  0  0  0  0  0  0  0  0  0  0
   -1.5391  -45.3745    6.9378 O   0  0  0  0  0  0  0  0  0  0  0  0
   -2.8810  -45.1822    7.1989 C   0  0  0  0  0  0  0  0  0  0  0  0
   -5.6349  -44.5517    7.4221 C   0  0  0  0  0  0  0  0  0  0  0  0
   -4.8882  -44.0528    6.3462 C   0  0  0  0  0  0  0  0  0  0  0  0
   -3.5272  -44.3675    6.2431 C   0  0  0  0  0  0  0  0  0  0  0  0
    0.9807  -50.5349    6.6696 N   0  0  0  0  0  0  0  0  0  0  0  0
   -4.5301  -46.7432   10.1164 C   0  0  0  0  0  0  0  0  0  0  0  0
   -5.5194  -46.0063    9.4887 N   0  0  0  0  0  0  0  0  0  0  0  0
   -5.0107  -45.3807    8.3736 C   0  0  0  0  0  0  0  0  0  0  0  0
   -3.6231  -45.7297    8.3012 C   0  0  0  0  0  0  0  0  0  0  0  0
   -3.3547  -46.5895    9.4315 C   0  0  0  0  0  0  0  0  0  0  0  0
    4.4539  -48.1514    7.2515 H   0  0  0  0  0  0  0  0  0  0  0  0
   -1.1203  -52.5160    6.4348 H   0  0  0  0  0  0  0  0  0  0  0  0
   -3.4285  -51.8632    5.7286 H   0  0  0  0  0  0  0  0  0  0  0  0
   -3.2952  -49.7561    4.4504 H   0  0  0  0  0  0  0  0  0  0  0  0
   -3.7398  -49.4542    6.1645 H   0  0  0  0  0  0  0  0  0  0  0  0
   -2.1565  -47.7664    5.3372 H   0  0  0  0  0  0  0  0  0  0  0  0
    1.8021  -46.7504    5.5246 H   0  0  0  0  0  0  0  0  0  0  0  0
    0.0352  -46.5536    5.2676 H   0  0  0  0  0  0  0  0  0  0  0  0
    1.3685  -46.5890    8.0232 H   0  0  0  0  0  0  0  0  0  0  0  0
    1.0304  -45.0895    7.0937 H   0  0  0  0  0  0  0  0  0  0  0  0
   -1.1027  -47.1125    7.9797 H   0  0  0  0  0  0  0  0  0  0  0  0
   -0.7210  -45.5778    8.8315 H   0  0  0  0  0  0  0  0  0  0  0  0
   -6.6811  -44.3022    7.5206 H   0  0  0  0  0  0  0  0  0  0  0  0
   -5.3594  -43.4293    5.6009 H   0  0  0  0  0  0  0  0  0  0  0  0
   -2.9579  -43.9776    5.4123 H   0  0  0  0  0  0  0  0  0  0  0  0
   -4.6640  -47.3433   11.0043 H   0  0  0  0  0  0  0  0  0  0  0  0
   -6.4671  -45.9383    9.8005 H   0  0  0  0  0  0  0  0  0  0  0  0
   -2.4025  -47.0296    9.6884 H   0  0  0  0  0  0  0  0  0  0  0  0
  1  2  2  0  0  0  0
  2  3  1  0  0  0  0
  2  4  1  0  0  0  0
  4 11  2  0  0  0  0
  4 20  1  0  0  0  0
  5  6  1  0  0  0  0
  5 10  1  0  0  0  0
  5 20  2  0  0  0  0
  6  7  2  0  0  0  0
  7  8  1  0  0  0  0
  8  9  1  0  0  0  0
  9 10  2  0  0  0  0
 10 11  1  0  0  0  0
 11 12  1  0  0  0  0
 12 13  1  0  0  0  0
 13 14  1  0  0  0  0
 14 15  1  0  0  0  0
 15 16  1  0  0  0  0
 16 19  2  0  0  0  0
 16 24  1  0  0  0  0
 17 18  2  0  0  0  0
 17 23  1  0  0  0  0
 18 19  1  0  0  0  0
 21 22  1  0  0  0  0
 21 25  2  0  0  0  0
 22 23  1  0  0  0  0
 23 24  2  0  0  0  0
 24 25  1  0  0  0  0
  3 26  1  0  0  0  0
  6 27  1  0  0  0  0
  7 28  1  0  0  0  0
  8 29  1  0  0  0  0
  8 30  1  0  0  0  0
  9 31  1  0  0  0  0
 12 32  1  0  0  0  0
 12 33  1  0  0  0  0
 13 34  1  0  0  0  0
 13 35  1  0  0  0  0
 14 36  1  0  0  0  0
 14 37  1  0  0  0  0
 17 38  1  0  0  0  0
 18 39  1  0  0  0  0
 19 40  1  0  0  0  0
 21 41  1  0  0  0  0
 22 42  1  0  0  0  0
 25 43  1  0  0  0  0
M  END
> <r_user_dG.exp>
-6.6626190630157

$$$$
48
  -OEChem-05162309453D
 Structure written by MMmdl.
 43 46  0     0  0  0  0  0  0999 V2000
    3.5962  -50.2382    7.2860 O   0  0  0  0  0  0  0  0  0  0  0  0
    2.9915  -49.1832    6.9785 C   0  0  0  0  0  0  0  0  0  0  0  0
    3.5468  -48.0563    6.9856 O   0  0  0  0  0  0  0  0  0  0  0  0
    1.5667  -49.2814    6.6034 C   0  0  0  0  0  0  0  0  0  0  0  0
   -0.3493  -50.4961    6.2933 C   0  0  0  0  0  0  0  0  0  0  0  0
   -1.3483  -51.4866    6.2008 C   0  0  0  0  0  0  0  0  0  0  0  0
   -2.6508  -51.1171    5.7985 C   0  0  0  0  0  0  0  0  0  0  0  0
   -2.9320  -49.7715    5.4886 C   0  0  0  0  0  0  0  0  0  0  0  0
   -1.9224  -48.7928    5.5781 C   0  0  0  0  0  0  0  0  0  0  0  0
   -0.6057  -49.1301    5.9783 C   0  0  0  0  0  0  0  0  0  0  0  0
    0.6128  -48.3833    6.1734 C   0  0  0  0  0  0  0  0  0  0  0  0
    0.8068  -46.9172    5.9622 C   0  0  0  0  0  0  0  0  0  0  0  0
    0.7034  -46.1229    7.2813 C   0  0  0  0  0  0  0  0  0  0  0  0
   -0.7224  -46.0877    7.8568 C   0  0  0  0  0  0  0  0  0  0  0  0
   -1.5391  -45.3745    6.9378 O   0  0  0  0  0  0  0  0  0  0  0  0
   -2.8810  -45.1822    7.1989 C   0  0  0  0  0  0  0  0  0  0  0  0
   -5.6349  -44.5517    7.4221 C   0  0  0  0  0  0  0  0  0  0  0  0
   -4.8882  -44.0528    6.3462 C   0  0  0  0  0  0  0  0  0  0  0  0
   -3.5272  -44.3675    6.2431 C   0  0  0  0  0  0  0  0  0  0  0  0
    0.9807  -50.5349    6.6696 N   0  0  0  0  0  0  0  0  0  0  0  0
   -4.5301  -46.7432   10.1164 C   0  0  0  0  0  0  0  0  0  0  0  0
   -5.5194  -46.0063    9.4887 N   0  0  0  0  0  0  0  0  0  0  0  0
   -5.0107  -45.3807    8.3736 C   0  0  0  0  0  0  0  0  0  0  0  0
   -3.6231  -45.7297    8.3012 C   0  0  0  0  0  0  0  0  0  0  0  0
   -3.3547  -46.5895    9.4315 C   0  0  0  0  0  0  0  0  0  0  0  0
    4.4539  -48.1514    7.2515 H   0  0  0  0  0  0  0  0  0  0  0  0
   -1.1203  -52.5160    6.4348 H   0  0  0  0  0  0  0  0  0  0  0  0
   -2.8862  -51.7069    4.9003 H   0  0  0  0  0  0  0  0  0  0  0  0
   -3.3300  -51.4048    6.6145 H   0  0  0  0  0  0  0  0  0  0  0  0
   -3.9277  -49.4886    5.1805 H   0  0  0  0  0  0  0  0  0  0  0  0
   -2.1565  -47.7664    5.3372 H   0  0  0  0  0  0  0  0  0  0  0  0
    1.8021  -46.7504    5.5246 H   0  0  0  0  0  0  0  0  0  0  0  0
    0.0352  -46.5536    5.2676 H   0  0  0  0  0  0  0  0  0  0  0  0
    1.3685  -46.5890    8.0232 H   0  0  0  0  0  0  0  0  0  0  0  0
    1.0304  -45.0895    7.0937 H   0  0  0  0  0  0  0  0  0  0  0  0
   -1.1027  -47.1125    7.9797 H   0  0  0  0  0  0  0  0  0  0  0  0
   -0.7210  -45.5778    8.8315 H   0  0  0  0  0  0  0  0  0  0  0  0
   -6.6811  -44.3022    7.5206 H   0  0  0  0  0  0  0  0  0  0  0  0
   -5.3594  -43.4293    5.6009 H   0  0  0  0  0  0  0  0  0  0  0  0
   -2.9579  -43.9776    5.4123 H   0  0  0  0  0  0  0  0  0  0  0  0
   -4.6640  -47.3433   11.0043 H   0  0  0  0  0  0  0  0  0  0  0  0
   -6.4671  -45.9383    9.8005 H   0  0  0  0  0  0  0  0  0  0  0  0
   -2.4025  -47.0296    9.6884 H   0  0  0  0  0  0  0  0  0  0  0  0
  1  2  2  0  0  0  0
  2  3  1  0  0  0  0
  2  4  1  0  0  0  0
  4 11  1  0  0  0  0
  4 20  2  0  0  0  0
  5  6  2  0  0  0  0
  5 10  1  0  0  0  0
  5 20  1  0  0  0  0
  6  7  1  0  0  0  0
  7  8  1  0  0  0  0
  8  9  2  0  0  0  0
  9 10  1  0  0  0  0
 10 11  2  0  0  0  0
 11 12  1  0  0  0  0
 12 13  1  0  0  0  0
 13 14  1  0  0  0  0
 14 15  1  0  0  0  0
 15 16  1  0  0  0  0
 16 19  2  0  0  0  0
 16 24  1  0  0  0  0
 17 18  2  0  0  0  0
 17 23  1  0  0  0  0
 18 19  1  0  0  0  0
 21 22  1  0  0  0  0
 21 25  2  0  0  0  0
 22 23  1  0  0  0  0
 23 24  2  0  0  0  0
 24 25  1  0  0  0  0
  3 26  1  0  0  0  0
  6 27  1  0  0  0  0
  7 28  1  0  0  0  0
  7 29  1  0  0  0  0
  8 30  1  0  0  0  0
  9 31  1  0  0  0  0
 12 32  1  0  0  0  0
 12 33  1  0  0  0  0
 13 34  1  0  0  0  0
 13 35  1  0  0  0  0
 14 36  1  0  0  0  0
 14 37  1  0  0  0  0
 17 38  1  0  0  0  0
 18 39  1  0  0  0  0
 19 40  1  0  0  0  0
 21 41  1  0  0  0  0
 22 42  1  0  0  0  0
 25 43  1  0  0  0  0
M  END
> <r_user_dG.exp>
-6.6626190630157

$$$$
48
  -OEChem-05162309453D
 Structure written by MMmdl.
 43 46  0     0  0  0  0  0  0999 V2000
    3.5962  -50.2382    7.2860 O   0  0  0  0  0  0  0  0  0  0  0  0
    2.9915  -49.1832    6.9785 C   0  0  0  0  0  0  0  0  0  0  0  0
    3.5468  -48.0563    6.9856 O   0  0  0  0  0  0  0  0  0  0  0  0
    1.5667  -49.2814    6.6034 C   0  0  0  0  0  0  0  0  0  0  0  0
   -0.3493  -50.4961    6.2933 C   0  0  0  0  0  0  0  0  0  0  0  0
   -1.3483  -51.4866    6.2008 C   0  0  0  0  0  0  0  0  0  0  0  0
   -2.6508  -51.1171    5.7985 C   0  0  0  0  0  0  0  0  0  0  0  0
   -2.9320  -49.7715    5.4886 C   0  0  0  0  0  0  0  0  0  0  0  0
   -1.9224  -48.7928    5.5781 C   0  0  0  0  0  0  0  0  0  0  0  0
   -0.6057  -49.1301    5.9783 C   0  0  0  0  0  0  0  0  0  0  0  0
    0.6128  -48.3833    6.1734 C   0  0  0  0  0  0  0  0  0  0  0  0
    0.8068  -46.9172    5.9622 C   0  0  0  0  0  0  0  0  0  0  0  0
    0.7034  -46.1229    7.2813 C   0  0  0  0  0  0  0  0  0  0  0  0
   -0.7224  -46.0877    7.8568 C   0  0  0  0  0  0  0  0  0  0  0  0
   -1.5391  -45.3745    6.9378 O   0  0  0  0  0  0  0  0  0  0  0  0
   -2.8810  -45.1822    7.1989 C   0  0  0  0  0  0  0  0  0  0  0  0
   -5.6349  -44.5517    7.4221 C   0  0  0  0  0  0  0  0  0  0  0  0
   -4.8882  -44.0528    6.3462 C   0  0  0  0  0  0  0  0  0  0  0  0
   -3.5272  -44.3675    6.2431 C   0  0  0  0  0  0  0  0  0  0  0  0
    0.9807  -50.5349    6.6696 N   0  0  0  0  0  0  0  0  0  0  0  0
   -4.5301  -46.7432   10.1164 C   0  0  0  0  0  0  0  0  0  0  0  0
   -5.5194  -46.0063    9.4887 N   0  0  0  0  0  0  0  0  0  0  0  0
   -5.0107  -45.3807    8.3736 C   0  0  0  0  0  0  0  0  0  0  0  0
   -3.6231  -45.7297    8.3012 C   0  0  0  0  0  0  0  0  0  0  0  0
   -3.3547  -46.5895    9.4315 C   0  0  0  0  0  0  0  0  0  0  0  0
    4.4539  -48.1514    7.2515 H   0  0  0  0  0  0  0  0  0  0  0  0
   -0.9906  -52.2374    5.4808 H   0  0  0  0  0  0  0  0  0  0  0  0
   -1.4378  -51.9465    7.1960 H   0  0  0  0  0  0  0  0  0  0  0  0
   -3.4285  -51.8632    5.7286 H   0  0  0  0  0  0  0  0  0  0  0  0
   -3.9277  -49.4886    5.1805 H   0  0  0  0  0  0  0  0  0  0  0  0
   -2.1565  -47.7664    5.3372 H   0  0  0  0  0  0  0  0  0  0  0  0
    1.8021  -46.7504    5.5246 H   0  0  0  0  0  0  0  0  0  0  0  0
    0.0352  -46.5536    5.2676 H   0  0  0  0  0  0  0  0  0  0  0  0
    1.3685  -46.5890    8.0232 H   0  0  0  0  0  0  0  0  0  0  0  0
    1.0304  -45.0895    7.0937 H   0  0  0  0  0  0  0  0  0  0  0  0
   -1.1027  -47.1125    7.9797 H   0  0  0  0  0  0  0  0  0  0  0  0
   -0.7210  -45.5778    8.8315 H   0  0  0  0  0  0  0  0  0  0  0  0
   -6.6811  -44.3022    7.5206 H   0  0  0  0  0  0  0  0  0  0  0  0
   -5.3594  -43.4293    5.6009 H   0  0  0  0  0  0  0  0  0  0  0  0
   -2.9579  -43.9776    5.4123 H   0  0  0  0  0  0  0  0  0  0  0  0
   -4.6640  -47.3433   11.0043 H   0  0  0  0  0  0  0  0  0  0  0  0
   -6.4671  -45.9383    9.8005 H   0  0  0  0  0  0  0  0  0  0  0  0
   -2.4025  -47.0296    9.6884 H   0  0  0  0  0  0  0  0  0  0  0  0
  1  2  2  0  0  0  0
  2  3  1  0  0  0  0
  2  4  1  0  0  0  0
  4 11  2  0  0  0  0
  4 20  1  0  0  0  0
  5  6  1  0  0  0  0
  5 10  1  0  0  0  0
  5 20  2  0  0  0  0
  6  7  1  0  0  0  0
  7  8  2  0  0  0  0
  8  9  1  0  0  0  0
  9 10  2  0  0  0  0
 10 11  1  0  0  0  0
 11 12  1  0  0  0  0
 12 13  1  0  0  0  0
 13 14  1  0  0  0  0
 14 15  1  0  0  0  0
 15 16  1  0  0  0  0
 16 19  2  0  0  0  0
 16 24  1  0  0  0  0
 17 18  2  0  0  0  0
 17 23  1  0  0  0  0
 18 19  1  0  0  0  0
 21 22  1  0  0  0  0
 21 25  2  0  0  0  0
 22 23  1  0  0  0  0
 23 24  2  0  0  0  0
 24 25  1  0  0  0  0
  3 26  1  0  0  0  0
  6 27  1  0  0  0  0
  6 28  1  0  0  0  0
  7 29  1  0  0  0  0
  8 30  1  0  0  0  0
  9 31  1  0  0  0  0
 12 32  1  0  0  0  0
 12 33  1  0  0  0  0
 13 34  1  0  0  0  0
 13 35  1  0  0  0  0
 14 36  1  0  0  0  0
 14 37  1  0  0  0  0
 17 38  1  0  0  0  0
 18 39  1  0  0  0  0
 19 40  1  0  0  0  0
 21 41  1  0  0  0  0
 22 42  1  0  0  0  0
 25 43  1  0  0  0  0
M  END
> <r_user_dG.exp>
-6.6626190630157

$$$$
48
  -OEChem-05162309453D
 Structure written by MMmdl.
 43 46  0     0  0  0  0  0  0999 V2000
    3.5962  -50.2382    7.2860 O   0  0  0  0  0  0  0  0  0  0  0  0
    2.9915  -49.1832    6.9785 C   0  0  0  0  0  0  0  0  0  0  0  0
    3.5468  -48.0563    6.9856 O   0  0  0  0  0  0  0  0  0  0  0  0
    1.5667  -49.2814    6.6034 C   0  0  0  0  0  0  0  0  0  0  0  0
   -0.3493  -50.4961    6.2933 C   0  0  0  0  0  0  0  0  0  0  0  0
   -1.3483  -51.4866    6.2008 C   0  0  0  0  0  0  0  0  0  0  0  0
   -2.6508  -51.1171    5.7985 C   0  0  0  0  0  0  0  0  0  0  0  0
   -2.9320  -49.7715    5.4886 C   0  0  0  0  0  0  0  0  0  0  0  0
   -1.9224  -48.7928    5.5781 C   0  0  0  0  0  0  0  0  0  0  0  0
   -0.6057  -49.1301    5.9783 C   0  0  0  0  0  0  0  0  0  0  0  0
    0.6128  -48.3833    6.1734 C   0  0  0  0  0  0  0  0  0  0  0  0
    0.8068  -46.9172    5.9622 C   0  0  0  0  0  0  0  0  0  0  0  0
    0.7034  -46.1229    7.2813 C   0  0  0  0  0  0  0  0  0  0  0  0
   -0.7224  -46.0877    7.8568 C   0  0  0  0  0  0  0  0  0  0  0  0
   -1.5391  -45.3745    6.9378 O   0  0  0  0  0  0  0  0  0  0  0  0
   -2.8810  -45.1822    7.1989 C   0  0  0  0  0  0  0  0  0  0  0  0
   -5.6349  -44.5517    7.4221 C   0  0  0  0  0  0  0  0  0  0  0  0
   -4.8882  -44.0528    6.3462 C   0  0  0  0  0  0  0  0  0  0  0  0
   -3.5272  -44.3675    6.2431 C   0  0  0  0  0  0  0  0  0  0  0  0
    0.9807  -50.5349    6.6696 N   0  0  0  0  0  0  0  0  0  0  0  0
   -4.5301  -46.7432   10.1164 C   0  0  0  0  0  0  0  0  0  0  0  0
   -5.5194  -46.0063    9.4887 N   0  0  0  0  0  0  0  0  0  0  0  0
   -5.0107  -45.3807    8.3736 C   0  0  0  0  0  0  0  0  0  0  0  0
   -3.6231  -45.7297    8.3012 C   0  0  0  0  0  0  0  0  0  0  0  0
   -3.3547  -46.5895    9.4315 C   0  0  0  0  0  0  0  0  0  0  0  0
    4.4539  -48.1514    7.2515 H   0  0  0  0  0  0  0  0  0  0  0  0
   -1.1203  -52.5160    6.4348 H   0  0  0  0  0  0  0  0  0  0  0  0
   -3.4285  -51.8632    5.7286 H   0  0  0  0  0  0  0  0  0  0  0  0
   -3.9277  -49.4886    5.1805 H   0  0  0  0  0  0  0  0  0  0  0  0
   -1.8381  -48.3398    4.5793 H   0  0  0  0  0  0  0  0  0  0  0  0
   -2.2820  -48.0386    6.2936 H   0  0  0  0  0  0  0  0  0  0  0  0
    1.8021  -46.7504    5.5246 H   0  0  0  0  0  0  0  0  0  0  0  0
    0.0352  -46.5536    5.2676 H   0  0  0  0  0  0  0  0  0  0  0  0
    1.3685  -46.5890    8.0232 H   0  0  0  0  0  0  0  0  0  0  0  0
    1.0304  -45.0895    7.0937 H   0  0  0  0  0  0  0  0  0  0  0  0
   -1.1027  -47.1125    7.9797 H   0  0  0  0  0  0  0  0  0  0  0  0
   -0.7210  -45.5778    8.8315 H   0  0  0  0  0  0  0  0  0  0  0  0
   -6.6811  -44.3022    7.5206 H   0  0  0  0  0  0  0  0  0  0  0  0
   -5.3594  -43.4293    5.6009 H   0  0  0  0  0  0  0  0  0  0  0  0
   -2.9579  -43.9776    5.4123 H   0  0  0  0  0  0  0  0  0  0  0  0
   -4.6640  -47.3433   11.0043 H   0  0  0  0  0  0  0  0  0  0  0  0
   -6.4671  -45.9383    9.8005 H   0  0  0  0  0  0  0  0  0  0  0  0
   -2.4025  -47.0296    9.6884 H   0  0  0  0  0  0  0  0  0  0  0  0
  1  2  2  0  0  0  0
  2  3  1  0  0  0  0
  2  4  1  0  0  0  0
  4 11  1  0  0  0  0
  4 20  2  0  0  0  0
  5  6  2  0  0  0  0
  5 10  1  0  0  0  0
  5 20  1  0  0  0  0
  6  7  1  0  0  0  0
  7  8  2  0  0  0  0
  8  9  1  0  0  0  0
  9 10  1  0  0  0  0
 10 11  2  0  0  0  0
 11 12  1  0  0  0  0
 12 13  1  0  0  0  0
 13 14  1  0  0  0  0
 14 15  1  0  0  0  0
 15 16  1  0  0  0  0
 16 19  2  0  0  0  0
 16 24  1  0  0  0  0
 17 18  2  0  0  0  0
 17 23  1  0  0  0  0
 18 19  1  0  0  0  0
 21 22  1  0  0  0  0
 21 25  2  0  0  0  0
 22 23  1  0  0  0  0
 23 24  2  0  0  0  0
 24 25  1  0  0  0  0
  3 26  1  0  0  0  0
  6 27  1  0  0  0  0
  7 28  1  0  0  0  0
  8 29  1  0  0  0  0
  9 30  1  0  0  0  0
  9 31  1  0  0  0  0
 12 32  1  0  0  0  0
 12 33  1  0  0  0  0
 13 34  1  0  0  0  0
 13 35  1  0  0  0  0
 14 36  1  0  0  0  0
 14 37  1  0  0  0  0
 17 38  1  0  0  0  0
 18 39  1  0  0  0  0
 19 40  1  0  0  0  0
 21 41  1  0  0  0  0
 22 42  1  0  0  0  0
 25 43  1  0  0  0  0
M  END
> <r_user_dG.exp>
-6.6626190630157

$$$$
48
  -OEChem-05162309453D
 Structure written by MMmdl.
 43 46  0     1  0  0  0  0  0999 V2000
    3.5962  -50.2382    7.2860 O   0  0  0  0  0  0  0  0  0  0  0  0
    2.9915  -49.1832    6.9785 C   0  0  0  0  0  0  0  0  0  0  0  0
    3.5468  -48.0563    6.9856 O   0  0  0  0  0  0  0  0  0  0  0  0
    1.5667  -49.2814    6.6034 C   0  0  0  0  0  0  0  0  0  0  0  0
   -0.3493  -50.4961    6.2933 C   0  0  0  0  0  0  0  0  0  0  0  0
   -1.3483  -51.4866    6.2008 C   0  0  0  0  0  0  0  0  0  0  0  0
   -2.6508  -51.1171    5.7985 C   0  0  0  0  0  0  0  0  0  0  0  0
   -2.9320  -49.7715    5.4886 C   0  0  0  0  0  0  0  0  0  0  0  0
   -1.9224  -48.7928    5.5781 C   0  0  0  0  0  0  0  0  0  0  0  0
   -0.6057  -49.1301    5.9783 C   0  0  0  0  0  0  0  0  0  0  0  0
    0.6128  -48.3833    6.1734 C   0  0  3  0  0  0  0  0  0  0  0  0
    0.8068  -46.9172    5.9622 C   0  0  0  0  0  0  0  0  0  0  0  0
    0.7034  -46.1229    7.2813 C   0  0  0  0  0  0  0  0  0  0  0  0
   -0.7224  -46.0877    7.8568 C   0  0  0  0  0  0  0  0  0  0  0  0
   -1.5391  -45.3745    6.9378 O   0  0  0  0  0  0  0  0  0  0  0  0
   -2.8810  -45.1822    7.1989 C   0  0  0  0  0  0  0  0  0  0  0  0
   -5.6349  -44.5517    7.4221 C   0  0  0  0  0  0  0  0  0  0  0  0
   -4.8882  -44.0528    6.3462 C   0  0  0  0  0  0  0  0  0  0  0  0
   -3.5272  -44.3675    6.2431 C   0  0  0  0  0  0  0  0  0  0  0  0
    0.9807  -50.5349    6.6696 N   0  0  0  0  0  0  0  0  0  0  0  0
   -4.5301  -46.7432   10.1164 C   0  0  0  0  0  0  0  0  0  0  0  0
   -5.5194  -46.0063    9.4887 N   0  0  0  0  0  0  0  0  0  0  0  0
   -5.0107  -45.3807    8.3736 C   0  0  0  0  0  0  0  0  0  0  0  0
   -3.6231  -45.7297    8.3012 C   0  0  3  0  0  0  0  0  0  0  0  0
   -3.3547  -46.5895    9.4315 C   0  0  0  0  0  0  0  0  0  0  0  0
    4.4539  -48.1514    7.2515 H   0  0  0  0  0  0  0  0  0  0  0  0
   -1.1203  -52.5160    6.4348 H   0  0  0  0  0  0  0  0  0  0  0  0
   -3.4285  -51.8632    5.7286 H   0  0  0  0  0  0  0  0  0  0  0  0
   -3.9277  -49.4886    5.1805 H   0  0  0  0  0  0  0  0  0  0  0  0
   -2.1565  -47.7664    5.3372 H   0  0  0  0  0  0  0  0  0  0  0  0
    0.9001  -48.5743    5.1289 H   0  0  0  0  0  0  0  0  0  0  0  0
    1.8021  -46.7504    5.5246 H   0  0  0  0  0  0  0  0  0  0  0  0
    0.0352  -46.5536    5.2676 H   0  0  0  0  0  0  0  0  0  0  0  0
    1.3685  -46.5890    8.0232 H   0  0  0  0  0  0  0  0  0  0  0  0
    1.0304  -45.0895    7.0937 H   0  0  0  0  0  0  0  0  0  0  0  0
   -1.1027  -47.1125    7.9797 H   0  0  0  0  0  0  0  0  0  0  0  0
   -0.7210  -45.5778    8.8315 H   0  0  0  0  0  0  0  0  0  0  0  0
   -6.6811  -44.3022    7.5206 H   0  0  0  0  0  0  0  0  0  0  0  0
   -5.3594  -43.4293    5.6009 H   0  0  0  0  0  0  0  0  0  0  0  0
   -2.9579  -43.9776    5.4123 H   0  0  0  0  0  0  0  0  0  0  0  0
   -4.6640  -47.3433   11.0043 H   0  0  0  0  0  0  0  0  0  0  0  0
   -3.3694  -44.8493    8.9100 H   0  0  0  0  0  0  0  0  0  0  0  0
   -2.4025  -47.0296    9.6884 H   0  0  0  0  0  0  0  0  0  0  0  0
  1  2  2  0  0  0  0
  2  3  1  0  0  0  0
  2  4  1  0  0  0  0
  4 11  1  0  0  0  0
  4 20  2  0  0  0  0
  5  6  2  0  0  0  0
  5 10  1  0  0  0  0
  5 20  1  0  0  0  0
  6  7  1  0  0  0  0
  7  8  2  0  0  0  0
  8  9  1  0  0  0  0
  9 10  2  0  0  0  0
 10 11  1  0  0  0  0
 11 12  1  0  0  0  0
 12 13  1  0  0  0  0
 13 14  1  0  0  0  0
 14 15  1  0  0  0  0
 15 16  1  0  0  0  0
 16 19  2  0  0  0  0
 16 24  1  0  0  0  0
 17 18  2  0  0  0  0
 17 23  1  0  0  0  0
 18 19  1  0  0  0  0
 21 22  1  0  0  0  0
 21 25  2  0  0  0  0
 22 23  2  0  0  0  0
 23 24  1  0  0  0  0
 24 25  1  0  0  0  0
  3 26  1  0  0  0  0
  6 27  1  0  0  0  0
  7 28  1  0  0  0  0
  8 29  1  0  0  0  0
  9 30  1  0  0  0  0
 11 31  1  0  0  0  0
 12 32  1  0  0  0  0
 12 33  1  0  0  0  0
 13 34  1  0  0  0  0
 13 35  1  0  0  0  0
 14 36  1  0  0  0  0
 14 37  1  0  0  0  0
 17 38  1  0  0  0  0
 18 39  1  0  0  0  0
 19 40  1  0  0  0  0
 21 41  1  0  0  0  0
 24 42  1  0  0  0  0
 25 43  1  0  0  0  0
M  END
> <r_user_dG.exp>
-6.6626190630157

$$$$
48
  -OEChem-05162309453D
 Structure written by MMmdl.
 43 46  0     1  0  0  0  0  0999 V2000
    3.5962  -50.2382    7.2860 O   0  0  0  0  0  0  0  0  0  0  0  0
    2.9915  -49.1832    6.9785 C   0  0  0  0  0  0  0  0  0  0  0  0
    3.5468  -48.0563    6.9856 O   0  0  0  0  0  0  0  0  0  0  0  0
    1.5667  -49.2814    6.6034 C   0  0  0  0  0  0  0  0  0  0  0  0
   -0.3493  -50.4961    6.2933 C   0  0  0  0  0  0  0  0  0  0  0  0
   -1.3483  -51.4866    6.2008 C   0  0  0  0  0  0  0  0  0  0  0  0
   -2.6508  -51.1171    5.7985 C   0  0  0  0  0  0  0  0  0  0  0  0
   -2.9320  -49.7715    5.4886 C   0  0  0  0  0  0  0  0  0  0  0  0
   -1.9224  -48.7928    5.5781 C   0  0  0  0  0  0  0  0  0  0  0  0
   -0.6057  -49.1301    5.9783 C   0  0  0  0  0  0  0  0  0  0  0  0
    0.6128  -48.3833    6.1734 C   0  0  3  0  0  0  0  0  0  0  0  0
    0.8068  -46.9172    5.9622 C   0  0  0  0  0  0  0  0  0  0  0  0
    0.7034  -46.1229    7.2813 C   0  0  0  0  0  0  0  0  0  0  0  0
   -0.7224  -46.0877    7.8568 C   0  0  0  0  0  0  0  0  0  0  0  0
   -1.5391  -45.3745    6.9378 O   0  0  0  0  0  0  0  0  0  0  0  0
   -2.8810  -45.1822    7.1989 C   0  0  0  0  0  0  0  0  0  0  0  0
   -5.6349  -44.5517    7.4221 C   0  0  0  0  0  0  0  0  0  0  0  0
   -4.8882  -44.0528    6.3462 C   0  0  0  0  0  0  0  0  0  0  0  0
   -3.5272  -44.3675    6.2431 C   0  0  0  0  0  0  0  0  0  0  0  0
    0.9807  -50.5349    6.6696 N   0  0  0  0  0  0  0  0  0  0  0  0
   -4.5301  -46.7432   10.1164 C   0  0  0  0  0  0  0  0  0  0  0  0
   -5.5194  -46.0063    9.4887 N   0  0  0  0  0  0  0  0  0  0  0  0
   -5.0107  -45.3807    8.3736 C   0  0  3  0  0  0  0  0  0  0  0  0
   -3.6231  -45.7297    8.3012 C   0  0  0  0  0  0  0  0  0  0  0  0
   -3.3547  -46.5895    9.4315 C   0  0  0  0  0  0  0  0  0  0  0  0
    4.4539  -48.1514    7.2515 H   0  0  0  0  0  0  0  0  0  0  0  0
   -1.1203  -52.5160    6.4348 H   0  0  0  0  0  0  0  0  0  0  0  0
   -3.4285  -51.8632    5.7286 H   0  0  0  0  0  0  0  0  0  0  0  0
   -3.9277  -49.4886    5.1805 H   0  0  0  0  0  0  0  0  0  0  0  0
   -2.1565  -47.7664    5.3372 H   0  0  0  0  0  0  0  0  0  0  0  0
    0.9001  -48.5743    5.1289 H   0  0  0  0  0  0  0  0  0  0  0  0
    1.8021  -46.7504    5.5246 H   0  0  0  0  0  0  0  0  0  0  0  0
    0.0352  -46.5536    5.2676 H   0  0  0  0  0  0  0  0  0  0  0  0
    1.3685  -46.5890    8.0232 H   0  0  0  0  0  0  0  0  0  0  0  0
    1.0304  -45.0895    7.0937 H   0  0  0  0  0  0  0  0  0  0  0  0
   -1.1027  -47.1125    7.9797 H   0  0  0  0  0  0  0  0  0  0  0  0
   -0.7210  -45.5778    8.8315 H   0  0  0  0  0  0  0  0  0  0  0  0
   -6.6811  -44.3022    7.5206 H   0  0  0  0  0  0  0  0  0  0  0  0
   -5.3594  -43.4293    5.6009 H   0  0  0  0  0  0  0  0  0  0  0  0
   -2.9579  -43.9776    5.4123 H   0  0  0  0  0  0  0  0  0  0  0  0
   -4.6640  -47.3433   11.0043 H   0  0  0  0  0  0  0  0  0  0  0  0
   -4.7593  -44.4984    8.9806 H   0  0  0  0  0  0  0  0  0  0  0  0
   -2.4025  -47.0296    9.6884 H   0  0  0  0  0  0  0  0  0  0  0  0
  1  2  2  0  0  0  0
  2  3  1  0  0  0  0
  2  4  1  0  0  0  0
  4 11  1  0  0  0  0
  4 20  2  0  0  0  0
  5  6  2  0  0  0  0
  5 10  1  0  0  0  0
  5 20  1  0  0  0  0
  6  7  1  0  0  0  0
  7  8  2  0  0  0  0
  8  9  1  0  0  0  0
  9 10  2  0  0  0  0
 10 11  1  0  0  0  0
 11 12  1  0  0  0  0
 12 13  1  0  0  0  0
 13 14  1  0  0  0  0
 14 15  1  0  0  0  0
 15 16  1  0  0  0  0
 16 19  2  0  0  0  0
 16 24  1  0  0  0  0
 17 18  2  0  0  0  0
 17 23  1  0  0  0  0
 18 19  1  0  0  0  0
 21 22  2  0  0  0  0
 21 25  1  0  0  0  0
 22 23  1  0  0  0  0
 23 24  1  0  0  0  0
 24 25  2  0  0  0  0
  3 26  1  0  0  0  0
  6 27  1  0  0  0  0
  7 28  1  0  0  0  0
  8 29  1  0  0  0  0
  9 30  1  0  0  0  0
 11 31  1  0  0  0  0
 12 32  1  0  0  0  0
 12 33  1  0  0  0  0
 13 34  1  0  0  0  0
 13 35  1  0  0  0  0
 14 36  1  0  0  0  0
 14 37  1  0  0  0  0
 17 38  1  0  0  0  0
 18 39  1  0  0  0  0
 19 40  1  0  0  0  0
 21 41  1  0  0  0  0
 23 42  1  0  0  0  0
 25 43  1  0  0  0  0
M  END
> <r_user_dG.exp>
-6.6626190630157

$$$$
48
  -OEChem-05162309453D
 Structure written by MMmdl.
 43 46  0     1  0  0  0  0  0999 V2000
    3.5962  -50.2382    7.2860 O   0  0  0  0  0  0  0  0  0  0  0  0
    2.9915  -49.1832    6.9785 C   0  0  0  0  0  0  0  0  0  0  0  0
    3.5468  -48.0563    6.9856 O   0  0  0  0  0  0  0  0  0  0  0  0
    1.5667  -49.2814    6.6034 C   0  0  0  0  0  0  0  0  0  0  0  0
   -0.3493  -50.4961    6.2933 C   0  0  0  0  0  0  0  0  0  0  0  0
   -1.3483  -51.4866    6.2008 C   0  0  0  0  0  0  0  0  0  0  0  0
   -2.6508  -51.1171    5.7985 C   0  0  0  0  0  0  0  0  0  0  0  0
   -2.9320  -49.7715    5.4886 C   0  0  0  0  0  0  0  0  0  0  0  0
   -1.9224  -48.7928    5.5781 C   0  0  0  0  0  0  0  0  0  0  0  0
   -0.6057  -49.1301    5.9783 C   0  0  0  0  0  0  0  0  0  0  0  0
    0.6128  -48.3833    6.1734 C   0  0  3  0  0  0  0  0  0  0  0  0
    0.8068  -46.9172    5.9622 C   0  0  0  0  0  0  0  0  0  0  0  0
    0.7034  -46.1229    7.2813 C   0  0  0  0  0  0  0  0  0  0  0  0
   -0.7224  -46.0877    7.8568 C   0  0  0  0  0  0  0  0  0  0  0  0
   -1.5391  -45.3745    6.9378 O   0  0  0  0  0  0  0  0  0  0  0  0
   -2.8810  -45.1822    7.1989 C   0  0  3  0  0  0  0  0  0  0  0  0
   -5.6349  -44.5517    7.4221 C   0  0  0  0  0  0  0  0  0  0  0  0
   -4.8882  -44.0528    6.3462 C   0  0  0  0  0  0  0  0  0  0  0  0
   -3.5272  -44.3675    6.2431 C   0  0  0  0  0  0  0  0  0  0  0  0
    0.9807  -50.5349    6.6696 N   0  0  0  0  0  0  0  0  0  0  0  0
   -4.5301  -46.7432   10.1164 C   0  0  0  0  0  0  0  0  0  0  0  0
   -5.5194  -46.0063    9.4887 N   0  0  0  0  0  0  0  0  0  0  0  0
   -5.0107  -45.3807    8.3736 C   0  0  0  0  0  0  0  0  0  0  0  0
   -3.6231  -45.7297    8.3012 C   0  0  0  0  0  0  0  0  0  0  0  0
   -3.3547  -46.5895    9.4315 C   0  0  0  0  0  0  0  0  0  0  0  0
    4.4539  -48.1514    7.2515 H   0  0  0  0  0  0  0  0  0  0  0  0
   -1.1203  -52.5160    6.4348 H   0  0  0  0  0  0  0  0  0  0  0  0
   -3.4285  -51.8632    5.7286 H   0  0  0  0  0  0  0  0  0  0  0  0
   -3.9277  -49.4886    5.1805 H   0  0  0  0  0  0  0  0  0  0  0  0
   -2.1565  -47.7664    5.3372 H   0  0  0  0  0  0  0  0  0  0  0  0
    0.9001  -48.5743    5.1289 H   0  0  0  0  0  0  0  0  0  0  0  0
    1.8021  -46.7504    5.5246 H   0  0  0  0  0  0  0  0  0  0  0  0
    0.0352  -46.5536    5.2676 H   0  0  0  0  0  0  0  0  0  0  0  0
    1.3685  -46.5890    8.0232 H   0  0  0  0  0  0  0  0  0  0  0  0
    1.0304  -45.0895    7.0937 H   0  0  0  0  0  0  0  0  0  0  0  0
   -1.1027  -47.1125    7.9797 H   0  0  0  0  0  0  0  0  0  0  0  0
   -0.7210  -45.5778    8.8315 H   0  0  0  0  0  0  0  0  0  0  0  0
   -2.6400  -44.2924    7.7991 H   0  0  0  0  0  0  0  0  0  0  0  0
   -6.6811  -44.3022    7.5206 H   0  0  0  0  0  0  0  0  0  0  0  0
   -5.3594  -43.4293    5.6009 H   0  0  0  0  0  0  0  0  0  0  0  0
   -2.9579  -43.9776    5.4123 H   0  0  0  0  0  0  0  0  0  0  0  0
   -4.6640  -47.3433   11.0043 H   0  0  0  0  0  0  0  0  0  0  0  0
   -2.4025  -47.0296    9.6884 H   0  0  0  0  0  0  0  0  0  0  0  0
  1  2  2  0  0  0  0
  2  3  1  0  0  0  0
  2  4  1  0  0  0  0
  4 11  1  0  0  0  0
  4 20  2  0  0  0  0
  5  6  2  0  0  0  0
  5 10  1  0  0  0  0
  5 20  1  0  0  0  0
  6  7  1  0  0  0  0
  7  8  2  0  0  0  0
  8  9  1  0  0  0  0
  9 10  2  0  0  0  0
 10 11  1  0  0  0  0
 11 12  1  0  0  0  0
 12 13  1  0  0  0  0
 13 14  1  0  0  0  0
 14 15  1  0  0  0  0
 15 16  1  0  0  0  0
 16 19  1  0  0  0  0
 16 24  1  0  0  0  0
 17 18  1  0  0  0  0
 17 23  2  0  0  0  0
 18 19  2  0  0  0  0
 21 22  2  0  0  0  0
 21 25  1  0  0  0  0
 22 23  1  0  0  0  0
 23 24  1  0  0  0  0
 24 25  2  0  0  0  0
  3 26  1  0  0  0  0
  6 27  1  0  0  0  0
  7 28  1  0  0  0  0
  8 29  1  0  0  0  0
  9 30  1  0  0  0  0
 11 31  1  0  0  0  0
 12 32  1  0  0  0  0
 12 33  1  0  0  0  0
 13 34  1  0  0  0  0
 13 35  1  0  0  0  0
 14 36  1  0  0  0  0
 14 37  1  0  0  0  0
 16 38  1  0  0  0  0
 17 39  1  0  0  0  0
 18 40  1  0  0  0  0
 19 41  1  0  0  0  0
 21 42  1  0  0  0  0
 25 43  1  0  0  0  0
M  END
> <r_user_dG.exp>
-6.6626190630157

$$$$
48
  -OEChem-05162309453D
 Structure written by MMmdl.
 43 46  0     1  0  0  0  0  0999 V2000
    3.5962  -50.2382    7.2860 O   0  0  0  0  0  0  0  0  0  0  0  0
    2.9915  -49.1832    6.9785 C   0  0  0  0  0  0  0  0  0  0  0  0
    3.5468  -48.0563    6.9856 O   0  0  0  0  0  0  0  0  0  0  0  0
    1.5667  -49.2814    6.6034 C   0  0  0  0  0  0  0  0  0  0  0  0
   -0.3493  -50.4961    6.2933 C   0  0  0  0  0  0  0  0  0  0  0  0
   -1.3483  -51.4866    6.2008 C   0  0  0  0  0  0  0  0  0  0  0  0
   -2.6508  -51.1171    5.7985 C   0  0  0  0  0  0  0  0  0  0  0  0
   -2.9320  -49.7715    5.4886 C   0  0  0  0  0  0  0  0  0  0  0  0
   -1.9224  -48.7928    5.5781 C   0  0  0  0  0  0  0  0  0  0  0  0
   -0.6057  -49.1301    5.9783 C   0  0  0  0  0  0  0  0  0  0  0  0
    0.6128  -48.3833    6.1734 C   0  0  3  0  0  0  0  0  0  0  0  0
    0.8068  -46.9172    5.9622 C   0  0  0  0  0  0  0  0  0  0  0  0
    0.7034  -46.1229    7.2813 C   0  0  0  0  0  0  0  0  0  0  0  0
   -0.7224  -46.0877    7.8568 C   0  0  0  0  0  0  0  0  0  0  0  0
   -1.5391  -45.3745    6.9378 O   0  0  0  0  0  0  0  0  0  0  0  0
   -2.8810  -45.1822    7.1989 C   0  0  0  0  0  0  0  0  0  0  0  0
   -5.6349  -44.5517    7.4221 C   0  0  0  0  0  0  0  0  0  0  0  0
   -4.8882  -44.0528    6.3462 C   0  0  0  0  0  0  0  0  0  0  0  0
   -3.5272  -44.3675    6.2431 C   0  0  0  0  0  0  0  0  0  0  0  0
    0.9807  -50.5349    6.6696 N   0  0  0  0  0  0  0  0  0  0  0  0
   -4.5301  -46.7432   10.1164 C   0  0  0  0  0  0  0  0  0  0  0  0
   -5.5194  -46.0063    9.4887 N   0  0  0  0  0  0  0  0  0  0  0  0
   -5.0107  -45.3807    8.3736 C   0  0  0  0  0  0  0  0  0  0  0  0
   -3.6231  -45.7297    8.3012 C   0  0  0  0  0  0  0  0  0  0  0  0
   -3.3547  -46.5895    9.4315 C   0  0  0  0  0  0  0  0  0  0  0  0
    4.4539  -48.1514    7.2515 H   0  0  0  0  0  0  0  0  0  0  0  0
   -1.1203  -52.5160    6.4348 H   0  0  0  0  0  0  0  0  0  0  0  0
   -3.4285  -51.8632    5.7286 H   0  0  0  0  0  0  0  0  0  0  0  0
   -3.9277  -49.4886    5.1805 H   0  0  0  0  0  0  0  0  0  0  0  0
   -2.1565  -47.7664    5.3372 H   0  0  0  0  0  0  0  0  0  0  0  0
    0.9001  -48.5743    5.1289 H   0  0  0  0  0  0  0  0  0  0  0  0
    1.8021  -46.7504    5.5246 H   0  0  0  0  0  0  0  0  0  0  0  0
    0.0352  -46.5536    5.2676 H   0  0  0  0  0  0  0  0  0  0  0  0
    1.3685  -46.5890    8.0232 H   0  0  0  0  0  0  0  0  0  0  0  0
    1.0304  -45.0895    7.0937 H   0  0  0  0  0  0  0  0  0  0  0  0
   -1.1027  -47.1125    7.9797 H   0  0  0  0  0  0  0  0  0  0  0  0
   -0.7210  -45.5778    8.8315 H   0  0  0  0  0  0  0  0  0  0  0  0
   -6.6811  -44.3022    7.5206 H   0  0  0  0  0  0  0  0  0  0  0  0
   -5.3706  -44.4163    5.4269 H   0  0  0  0  0  0  0  0  0  0  0  0
   -4.9600  -42.9560    6.3889 H   0  0  0  0  0  0  0  0  0  0  0  0
   -2.9579  -43.9776    5.4123 H   0  0  0  0  0  0  0  0  0  0  0  0
   -4.6640  -47.3433   11.0043 H   0  0  0  0  0  0  0  0  0  0  0  0
   -2.4025  -47.0296    9.6884 H   0  0  0  0  0  0  0  0  0  0  0  0
  1  2  2  0  0  0  0
  2  3  1  0  0  0  0
  2  4  1  0  0  0  0
  4 11  1  0  0  0  0
  4 20  2  0  0  0  0
  5  6  2  0  0  0  0
  5 10  1  0  0  0  0
  5 20  1  0  0  0  0
  6  7  1  0  0  0  0
  7  8  2  0  0  0  0
  8  9  1  0  0  0  0
  9 10  2  0  0  0  0
 10 11  1  0  0  0  0
 11 12  1  0  0  0  0
 12 13  1  0  0  0  0
 13 14  1  0  0  0  0
 14 15  1  0  0  0  0
 15 16  1  0  0  0  0
 16 19  2  0  0  0  0
 16 24  1  0  0  0  0
 17 18  1  0  0  0  0
 17 23  2  0  0  0  0
 18 19  1  0  0  0  0
 21 22  2  0  0  0  0
 21 25  1  0  0  0  0
 22 23  1  0  0  0  0
 23 24  1  0  0  0  0
 24 25  2  0  0  0  0
  3 26  1  0  0  0  0
  6 27  1  0  0  0  0
  7 28  1  0  0  0  0
  8 29  1  0  0  0  0
  9 30  1  0  0  0  0
 11 31  1  0  0  0  0
 12 32  1  0  0  0  0
 12 33  1  0  0  0  0
 13 34  1  0  0  0  0
 13 35  1  0  0  0  0
 14 36  1  0  0  0  0
 14 37  1  0  0  0  0
 17 38  1  0  0  0  0
 18 39  1  0  0  0  0
 18 40  1  0  0  0  0
 19 41  1  0  0  0  0
 21 42  1  0  0  0  0
 25 43  1  0  0  0  0
M  END
> <r_user_dG.exp>
-6.6626190630157

$$$$
48
  -OEChem-05162309453D
 Structure written by MMmdl.
 43 46  0     1  0  0  0  0  0999 V2000
    3.5962  -50.2382    7.2860 O   0  0  0  0  0  0  0  0  0  0  0  0
    2.9915  -49.1832    6.9785 C   0  0  0  0  0  0  0  0  0  0  0  0
    3.5468  -48.0563    6.9856 O   0  0  0  0  0  0  0  0  0  0  0  0
    1.5667  -49.2814    6.6034 C   0  0  0  0  0  0  0  0  0  0  0  0
   -0.3493  -50.4961    6.2933 C   0  0  0  0  0  0  0  0  0  0  0  0
   -1.3483  -51.4866    6.2008 C   0  0  0  0  0  0  0  0  0  0  0  0
   -2.6508  -51.1171    5.7985 C   0  0  0  0  0  0  0  0  0  0  0  0
   -2.9320  -49.7715    5.4886 C   0  0  0  0  0  0  0  0  0  0  0  0
   -1.9224  -48.7928    5.5781 C   0  0  0  0  0  0  0  0  0  0  0  0
   -0.6057  -49.1301    5.9783 C   0  0  0  0  0  0  0  0  0  0  0  0
    0.6128  -48.3833    6.1734 C   0  0  3  0  0  0  0  0  0  0  0  0
    0.8068  -46.9172    5.9622 C   0  0  0  0  0  0  0  0  0  0  0  0
    0.7034  -46.1229    7.2813 C   0  0  0  0  0  0  0  0  0  0  0  0
   -0.7224  -46.0877    7.8568 C   0  0  0  0  0  0  0  0  0  0  0  0
   -1.5391  -45.3745    6.9378 O   0  0  0  0  0  0  0  0  0  0  0  0
   -2.8810  -45.1822    7.1989 C   0  0  0  0  0  0  0  0  0  0  0  0
   -5.6349  -44.5517    7.4221 C   0  0  0  0  0  0  0  0  0  0  0  0
   -4.8882  -44.0528    6.3462 C   0  0  0  0  0  0  0  0  0  0  0  0
   -3.5272  -44.3675    6.2431 C   0  0  0  0  0  0  0  0  0  0  0  0
    0.9807  -50.5349    6.6696 N   0  0  0  0  0  0  0  0  0  0  0  0
   -4.5301  -46.7432   10.1164 C   0  0  0  0  0  0  0  0  0  0  0  0
   -5.5194  -46.0063    9.4887 N   0  0  0  0  0  0  0  0  0  0  0  0
   -5.0107  -45.3807    8.3736 C   0  0  0  0  0  0  0  0  0  0  0  0
   -3.6231  -45.7297    8.3012 C   0  0  0  0  0  0  0  0  0  0  0  0
   -3.3547  -46.5895    9.4315 C   0  0  0  0  0  0  0  0  0  0  0  0
    4.4539  -48.1514    7.2515 H   0  0  0  0  0  0  0  0  0  0  0  0
   -1.1203  -52.5160    6.4348 H   0  0  0  0  0  0  0  0  0  0  0  0
   -3.4285  -51.8632    5.7286 H   0  0  0  0  0  0  0  0  0  0  0  0
   -3.9277  -49.4886    5.1805 H   0  0  0  0  0  0  0  0  0  0  0  0
   -2.1565  -47.7664    5.3372 H   0  0  0  0  0  0  0  0  0  0  0  0
    0.9001  -48.5743    5.1289 H   0  0  0  0  0  0  0  0  0  0  0  0
    1.8021  -46.7504    5.5246 H   0  0  0  0  0  0  0  0  0  0  0  0
    0.0352  -46.5536    5.2676 H   0  0  0  0  0  0  0  0  0  0  0  0
    1.3685  -46.5890    8.0232 H   0  0  0  0  0  0  0  0  0  0  0  0
    1.0304  -45.0895    7.0937 H   0  0  0  0  0  0  0  0  0  0  0  0
   -1.1027  -47.1125    7.9797 H   0  0  0  0  0  0  0  0  0  0  0  0
   -0.7210  -45.5778    8.8315 H   0  0  0  0  0  0  0  0  0  0  0  0
   -6.6811  -44.3022    7.5206 H   0  0  0  0  0  0  0  0  0  0  0  0
   -5.3594  -43.4293    5.6009 H   0  0  0  0  0  0  0  0  0  0  0  0
   -2.9873  -43.4091    6.2373 H   0  0  0  0  0  0  0  0  0  0  0  0
   -3.3976  -44.8673    5.2718 H   0  0  0  0  0  0  0  0  0  0  0  0
   -4.6640  -47.3433   11.0043 H   0  0  0  0  0  0  0  0  0  0  0  0
   -2.4025  -47.0296    9.6884 H   0  0  0  0  0  0  0  0  0  0  0  0
  1  2  2  0  0  0  0
  2  3  1  0  0  0  0
  2  4  1  0  0  0  0
  4 11  1  0  0  0  0
  4 20  2  0  0  0  0
  5  6  2  0  0  0  0
  5 10  1  0  0  0  0
  5 20  1  0  0  0  0
  6  7  1  0  0  0  0
  7  8  2  0  0  0  0
  8  9  1  0  0  0  0
  9 10  2  0  0  0  0
 10 11  1  0  0  0  0
 11 12  1  0  0  0  0
 12 13  1  0  0  0  0
 13 14  1  0  0  0  0
 14 15  1  0  0  0  0
 15 16  1  0  0  0  0
 16 19  1  0  0  0  0
 16 24  2  0  0  0  0
 17 18  2  0  0  0  0
 17 23  1  0  0  0  0
 18 19  1  0  0  0  0
 21 22  1  0  0  0  0
 21 25  2  0  0  0  0
 22 23  2  0  0  0  0
 23 24  1  0  0  0  0
 24 25  1  0  0  0  0
  3 26  1  0  0  0  0
  6 27  1  0  0  0  0
  7 28  1  0  0  0  0
  8 29  1  0  0  0  0
  9 30  1  0  0  0  0
 11 31  1  0  0  0  0
 12 32  1  0  0  0  0
 12 33  1  0  0  0  0
 13 34  1  0  0  0  0
 13 35  1  0  0  0  0
 14 36  1  0  0  0  0
 14 37  1  0  0  0  0
 17 38  1  0  0  0  0
 18 39  1  0  0  0  0
 19 40  1  0  0  0  0
 19 41  1  0  0  0  0
 21 42  1  0  0  0  0
 25 43  1  0  0  0  0
M  END
> <r_user_dG.exp>
-6.6626190630157

$$$$
48
  -OEChem-05162309453D
 Structure written by MMmdl.
 43 46  0     1  0  0  0  0  0999 V2000
    3.5962  -50.2382    7.2860 O   0  0  0  0  0  0  0  0  0  0  0  0
    2.9915  -49.1832    6.9785 C   0  0  0  0  0  0  0  0  0  0  0  0
    3.5468  -48.0563    6.9856 O   0  0  0  0  0  0  0  0  0  0  0  0
    1.5667  -49.2814    6.6034 C   0  0  0  0  0  0  0  0  0  0  0  0
   -0.3493  -50.4961    6.2933 C   0  0  0  0  0  0  0  0  0  0  0  0
   -1.3483  -51.4866    6.2008 C   0  0  0  0  0  0  0  0  0  0  0  0
   -2.6508  -51.1171    5.7985 C   0  0  0  0  0  0  0  0  0  0  0  0
   -2.9320  -49.7715    5.4886 C   0  0  0  0  0  0  0  0  0  0  0  0
   -1.9224  -48.7928    5.5781 C   0  0  0  0  0  0  0  0  0  0  0  0
   -0.6057  -49.1301    5.9783 C   0  0  0  0  0  0  0  0  0  0  0  0
    0.6128  -48.3833    6.1734 C   0  0  3  0  0  0  0  0  0  0  0  0
    0.8068  -46.9172    5.9622 C   0  0  0  0  0  0  0  0  0  0  0  0
    0.7034  -46.1229    7.2813 C   0  0  0  0  0  0  0  0  0  0  0  0
   -0.7224  -46.0877    7.8568 C   0  0  0  0  0  0  0  0  0  0  0  0
   -1.5391  -45.3745    6.9378 O   0  0  0  0  0  0  0  0  0  0  0  0
   -2.8810  -45.1822    7.1989 C   0  0  0  0  0  0  0  0  0  0  0  0
   -5.6349  -44.5517    7.4221 C   0  0  0  0  0  0  0  0  0  0  0  0
   -4.8882  -44.0528    6.3462 C   0  0  0  0  0  0  0  0  0  0  0  0
   -3.5272  -44.3675    6.2431 C   0  0  0  0  0  0  0  0  0  0  0  0
    0.9807  -50.5349    6.6696 N   0  0  0  0  0  0  0  0  0  0  0  0
   -4.5301  -46.7432   10.1164 C   0  0  0  0  0  0  0  0  0  0  0  0
   -5.5194  -46.0063    9.4887 N   0  0  0  0  0  0  0  0  0  0  0  0
   -5.0107  -45.3807    8.3736 C   0  0  0  0  0  0  0  0  0  0  0  0
   -3.6231  -45.7297    8.3012 C   0  0  0  0  0  0  0  0  0  0  0  0
   -3.3547  -46.5895    9.4315 C   0  0  0  0  0  0  0  0  0  0  0  0
    4.4539  -48.1514    7.2515 H   0  0  0  0  0  0  0  0  0  0  0  0
   -1.1203  -52.5160    6.4348 H   0  0  0  0  0  0  0  0  0  0  0  0
   -3.4285  -51.8632    5.7286 H   0  0  0  0  0  0  0  0  0  0  0  0
   -3.9277  -49.4886    5.1805 H   0  0  0  0  0  0  0  0  0  0  0  0
   -2.1565  -47.7664    5.3372 H   0  0  0  0  0  0  0  0  0  0  0  0
    0.9001  -48.5743    5.1289 H   0  0  0  0  0  0  0  0  0  0  0  0
    1.8021  -46.7504    5.5246 H   0  0  0  0  0  0  0  0  0  0  0  0
    0.0352  -46.5536    5.2676 H   0  0  0  0  0  0  0  0  0  0  0  0
    1.3685  -46.5890    8.0232 H   0  0  0  0  0  0  0  0  0  0  0  0
    1.0304  -45.0895    7.0937 H   0  0  0  0  0  0  0  0  0  0  0  0
   -1.1027  -47.1125    7.9797 H   0  0  0  0  0  0  0  0  0  0  0  0
   -0.7210  -45.5778    8.8315 H   0  0  0  0  0  0  0  0  0  0  0  0
   -6.0319  -43.6822    7.9666 H   0  0  0  0  0  0  0  0  0  0  0  0
   -6.4683  -45.1277    6.9935 H   0  0  0  0  0  0  0  0  0  0  0  0
   -5.3594  -43.4293    5.6009 H   0  0  0  0  0  0  0  0  0  0  0  0
   -2.9579  -43.9776    5.4123 H   0  0  0  0  0  0  0  0  0  0  0  0
   -4.6640  -47.3433   11.0043 H   0  0  0  0  0  0  0  0  0  0  0  0
   -2.4025  -47.0296    9.6884 H   0  0  0  0  0  0  0  0  0  0  0  0
  1  2  2  0  0  0  0
  2  3  1  0  0  0  0
  2  4  1  0  0  0  0
  4 11  1  0  0  0  0
  4 20  2  0  0  0  0
  5  6  2  0  0  0  0
  5 10  1  0  0  0  0
  5 20  1  0  0  0  0
  6  7  1  0  0  0  0
  7  8  2  0  0  0  0
  8  9  1  0  0  0  0
  9 10  2  0  0  0  0
 10 11  1  0  0  0  0
 11 12  1  0  0  0  0
 12 13  1  0  0  0  0
 13 14  1  0  0  0  0
 14 15  1  0  0  0  0
 15 16  1  0  0  0  0
 16 19  1  0  0  0  0
 16 24  2  0  0  0  0
 17 18  1  0  0  0  0
 17 23  1  0  0  0  0
 18 19  2  0  0  0  0
 21 22  1  0  0  0  0
 21 25  2  0  0  0  0
 22 23  2  0  0  0  0
 23 24  1  0  0  0  0
 24 25  1  0  0  0  0
  3 26  1  0  0  0  0
  6 27  1  0  0  0  0
  7 28  1  0  0  0  0
  8 29  1  0  0  0  0
  9 30  1  0  0  0  0
 11 31  1  0  0  0  0
 12 32  1  0  0  0  0
 12 33  1  0  0  0  0
 13 34  1  0  0  0  0
 13 35  1  0  0  0  0
 14 36  1  0  0  0  0
 14 37  1  0  0  0  0
 17 38  1  0  0  0  0
 17 39  1  0  0  0  0
 18 40  1  0  0  0  0
 19 41  1  0  0  0  0
 21 42  1  0  0  0  0
 25 43  1  0  0  0  0
M  END
> <r_user_dG.exp>
-6.6626190630157

$$$$
48
  -OEChem-05162309453D
 Structure written by MMmdl.
 43 46  0     1  0  0  0  0  0999 V2000
    3.5962  -50.2382    7.2860 O   0  0  0  0  0  0  0  0  0  0  0  0
    2.9915  -49.1832    6.9785 C   0  0  0  0  0  0  0  0  0  0  0  0
    3.5468  -48.0563    6.9856 O   0  0  0  0  0  0  0  0  0  0  0  0
    1.5667  -49.2814    6.6034 C   0  0  0  0  0  0  0  0  0  0  0  0
   -0.3493  -50.4961    6.2933 C   0  0  0  0  0  0  0  0  0  0  0  0
   -1.3483  -51.4866    6.2008 C   0  0  0  0  0  0  0  0  0  0  0  0
   -2.6508  -51.1171    5.7985 C   0  0  0  0  0  0  0  0  0  0  0  0
   -2.9320  -49.7715    5.4886 C   0  0  0  0  0  0  0  0  0  0  0  0
   -1.9224  -48.7928    5.5781 C   0  0  0  0  0  0  0  0  0  0  0  0
   -0.6057  -49.1301    5.9783 C   0  0  3  0  0  0  0  0  0  0  0  0
    0.6128  -48.3833    6.1734 C   0  0  0  0  0  0  0  0  0  0  0  0
    0.8068  -46.9172    5.9622 C   0  0  0  0  0  0  0  0  0  0  0  0
    0.7034  -46.1229    7.2813 C   0  0  0  0  0  0  0  0  0  0  0  0
   -0.7224  -46.0877    7.8568 C   0  0  0  0  0  0  0  0  0  0  0  0
   -1.5391  -45.3745    6.9378 O   0  0  0  0  0  0  0  0  0  0  0  0
   -2.8810  -45.1822    7.1989 C   0  0  0  0  0  0  0  0  0  0  0  0
   -5.6349  -44.5517    7.4221 C   0  0  0  0  0  0  0  0  0  0  0  0
   -4.8882  -44.0528    6.3462 C   0  0  0  0  0  0  0  0  0  0  0  0
   -3.5272  -44.3675    6.2431 C   0  0  0  0  0  0  0  0  0  0  0  0
    0.9807  -50.5349    6.6696 N   0  0  0  0  0  0  0  0  0  0  0  0
   -4.5301  -46.7432   10.1164 C   0  0  0  0  0  0  0  0  0  0  0  0
   -5.5194  -46.0063    9.4887 N   0  0  0  0  0  0  0  0  0  0  0  0
   -5.0107  -45.3807    8.3736 C   0  0  0  0  0  0  0  0  0  0  0  0
   -3.6231  -45.7297    8.3012 C   0  0  0  0  0  0  0  0  0  0  0  0
   -3.3547  -46.5895    9.4315 C   0  0  0  0  0  0  0  0  0  0  0  0
    4.4539  -48.1514    7.2515 H   0  0  0  0  0  0  0  0  0  0  0  0
   -1.1203  -52.5160    6.4348 H   0  0  0  0  0  0  0  0  0  0  0  0
   -3.4285  -51.8632    5.7286 H   0  0  0  0  0  0  0  0  0  0  0  0
   -3.9277  -49.4886    5.1805 H   0  0  0  0  0  0  0  0  0  0  0  0
   -2.1565  -47.7664    5.3372 H   0  0  0  0  0  0  0  0  0  0  0  0
   -0.3296  -49.3153    4.9298 H   0  0  0  0  0  0  0  0  0  0  0  0
    1.8021  -46.7504    5.5246 H   0  0  0  0  0  0  0  0  0  0  0  0
    0.0352  -46.5536    5.2676 H   0  0  0  0  0  0  0  0  0  0  0  0
    1.3685  -46.5890    8.0232 H   0  0  0  0  0  0  0  0  0  0  0  0
    1.0304  -45.0895    7.0937 H   0  0  0  0  0  0  0  0  0  0  0  0
   -1.1027  -47.1125    7.9797 H   0  0  0  0  0  0  0  0  0  0  0  0
   -0.7210  -45.5778    8.8315 H   0  0  0  0  0  0  0  0  0  0  0  0
   -6.6811  -44.3022    7.5206 H   0  0  0  0  0  0  0  0  0  0  0  0
   -5.3594  -43.4293    5.6009 H   0  0  0  0  0  0  0  0  0  0  0  0
   -2.9579  -43.9776    5.4123 H   0  0  0  0  0  0  0  0  0  0  0  0
   -4.6640  -47.3433   11.0043 H   0  0  0  0  0  0  0  0  0  0  0  0
   -2.5973  -46.1290   10.0829 H   0  0  0  0  0  0  0  0  0  0  0  0
   -2.9922  -47.5676    9.0823 H   0  0  0  0  0  0  0  0  0  0  0  0
  1  2  2  0  0  0  0
  2  3  1  0  0  0  0
  2  4  1  0  0  0  0
  4 11  2  0  0  0  0
  4 20  1  0  0  0  0
  5  6  1  0  0  0  0
  5 10  1  0  0  0  0
  5 20  2  0  0  0  0
  6  7  2  0  0  0  0
  7  8  1  0  0  0  0
  8  9  2  0  0  0  0
  9 10  1  0  0  0  0
 10 11  1  0  0  0  0
 11 12  1  0  0  0  0
 12 13  1  0  0  0  0
 13 14  1  0  0  0  0
 14 15  1  0  0  0  0
 15 16  1  0  0  0  0
 16 19  2  0  0  0  0
 16 24  1  0  0  0  0
 17 18  2  0  0  0  0
 17 23  1  0  0  0  0
 18 19  1  0  0  0  0
 21 22  2  0  0  0  0
 21 25  1  0  0  0  0
 22 23  1  0  0  0  0
 23 24  2  0  0  0  0
 24 25  1  0  0  0  0
  3 26  1  0  0  0  0
  6 27  1  0  0  0  0
  7 28  1  0  0  0  0
  8 29  1  0  0  0  0
  9 30  1  0  0  0  0
 10 31  1  0  0  0  0
 12 32  1  0  0  0  0
 12 33  1  0  0  0  0
 13 34  1  0  0  0  0
 13 35  1  0  0  0  0
 14 36  1  0  0  0  0
 14 37  1  0  0  0  0
 17 38  1  0  0  0  0
 18 39  1  0  0  0  0
 19 40  1  0  0  0  0
 21 41  1  0  0  0  0
 25 42  1  0  0  0  0
 25 43  1  0  0  0  0
M  END
> <r_user_dG.exp>
-6.6626190630157

$$$$
48
  -OEChem-05162309453D
 Structure written by MMmdl.
 43 46  0     1  0  0  0  0  0999 V2000
    3.5962  -50.2382    7.2860 O   0  0  0  0  0  0  0  0  0  0  0  0
    2.9915  -49.1832    6.9785 C   0  0  0  0  0  0  0  0  0  0  0  0
    3.5468  -48.0563    6.9856 O   0  0  0  0  0  0  0  0  0  0  0  0
    1.5667  -49.2814    6.6034 C   0  0  0  0  0  0  0  0  0  0  0  0
   -0.3493  -50.4961    6.2933 C   0  0  3  0  0  0  0  0  0  0  0  0
   -1.3483  -51.4866    6.2008 C   0  0  0  0  0  0  0  0  0  0  0  0
   -2.6508  -51.1171    5.7985 C   0  0  0  0  0  0  0  0  0  0  0  0
   -2.9320  -49.7715    5.4886 C   0  0  0  0  0  0  0  0  0  0  0  0
   -1.9224  -48.7928    5.5781 C   0  0  0  0  0  0  0  0  0  0  0  0
   -0.6057  -49.1301    5.9783 C   0  0  0  0  0  0  0  0  0  0  0  0
    0.6128  -48.3833    6.1734 C   0  0  0  0  0  0  0  0  0  0  0  0
    0.8068  -46.9172    5.9622 C   0  0  0  0  0  0  0  0  0  0  0  0
    0.7034  -46.1229    7.2813 C   0  0  0  0  0  0  0  0  0  0  0  0
   -0.7224  -46.0877    7.8568 C   0  0  0  0  0  0  0  0  0  0  0  0
   -1.5391  -45.3745    6.9378 O   0  0  0  0  0  0  0  0  0  0  0  0
   -2.8810  -45.1822    7.1989 C   0  0  0  0  0  0  0  0  0  0  0  0
   -5.6349  -44.5517    7.4221 C   0  0  0  0  0  0  0  0  0  0  0  0
   -4.8882  -44.0528    6.3462 C   0  0  0  0  0  0  0  0  0  0  0  0
   -3.5272  -44.3675    6.2431 C   0  0  0  0  0  0  0  0  0  0  0  0
    0.9807  -50.5349    6.6696 N   0  0  0  0  0  0  0  0  0  0  0  0
   -4.5301  -46.7432   10.1164 C   0  0  0  0  0  0  0  0  0  0  0  0
   -5.5194  -46.0063    9.4887 N   0  0  0  0  0  0  0  0  0  0  0  0
   -5.0107  -45.3807    8.3736 C   0  0  0  0  0  0  0  0  0  0  0  0
   -3.6231  -45.7297    8.3012 C   0  0  0  0  0  0  0  0  0  0  0  0
   -3.3547  -46.5895    9.4315 C   0  0  0  0  0  0  0  0  0  0  0  0
    4.4539  -48.1514    7.2515 H   0  0  0  0  0  0  0  0  0  0  0  0
   -0.0617  -50.6854    5.2486 H   0  0  0  0  0  0  0  0  0  0  0  0
   -1.1203  -52.5160    6.4348 H   0  0  0  0  0  0  0  0  0  0  0  0
   -3.4285  -51.8632    5.7286 H   0  0  0  0  0  0  0  0  0  0  0  0
   -3.9277  -49.4886    5.1805 H   0  0  0  0  0  0  0  0  0  0  0  0
   -2.1565  -47.7664    5.3372 H   0  0  0  0  0  0  0  0  0  0  0  0
    1.8021  -46.7504    5.5246 H   0  0  0  0  0  0  0  0  0  0  0  0
    0.0352  -46.5536    5.2676 H   0  0  0  0  0  0  0  0  0  0  0  0
    1.3685  -46.5890    8.0232 H   0  0  0  0  0  0  0  0  0  0  0  0
    1.0304  -45.0895    7.0937 H   0  0  0  0  0  0  0  0  0  0  0  0
   -1.1027  -47.1125    7.9797 H   0  0  0  0  0  0  0  0  0  0  0  0
   -0.7210  -45.5778    8.8315 H   0  0  0  0  0  0  0  0  0  0  0  0
   -6.6811  -44.3022    7.5206 H   0  0  0  0  0  0  0  0  0  0  0  0
   -5.3594  -43.4293    5.6009 H   0  0  0  0  0  0  0  0  0  0  0  0
   -2.9579  -43.9776    5.4123 H   0  0  0  0  0  0  0  0  0  0  0  0
   -4.6640  -47.3433   11.0043 H   0  0  0  0  0  0  0  0  0  0  0  0
   -2.5973  -46.1290   10.0829 H   0  0  0  0  0  0  0  0  0  0  0  0
   -2.9922  -47.5676    9.0823 H   0  0  0  0  0  0  0  0  0  0  0  0
  1  2  2  0  0  0  0
  2  3  1  0  0  0  0
  2  4  1  0  0  0  0
  4 11  1  0  0  0  0
  4 20  2  0  0  0  0
  5  6  1  0  0  0  0
  5 10  1  0  0  0  0
  5 20  1  0  0  0  0
  6  7  2  0  0  0  0
  7  8  1  0  0  0  0
  8  9  2  0  0  0  0
  9 10  1  0  0  0  0
 10 11  2  0  0  0  0
 11 12  1  0  0  0  0
 12 13  1  0  0  0  0
 13 14  1  0  0  0  0
 14 15  1  0  0  0  0
 15 16  1  0  0  0  0
 16 19  2  0  0  0  0
 16 24  1  0  0  0  0
 17 18  2  0  0  0  0
 17 23  1  0  0  0  0
 18 19  1  0  0  0  0
 21 22  2  0  0  0  0
 21 25  1  0  0  0  0
 22 23  1  0  0  0  0
 23 24  2  0  0  0  0
 24 25  1  0  0  0  0
  3 26  1  0  0  0  0
  5 27  1  0  0  0  0
  6 28  1  0  0  0  0
  7 29  1  0  0  0  0
  8 30  1  0  0  0  0
  9 31  1  0  0  0  0
 12 32  1  0  0  0  0
 12 33  1  0  0  0  0
 13 34  1  0  0  0  0
 13 35  1  0  0  0  0
 14 36  1  0  0  0  0
 14 37  1  0  0  0  0
 17 38  1  0  0  0  0
 18 39  1  0  0  0  0
 19 40  1  0  0  0  0
 21 41  1  0  0  0  0
 25 42  1  0  0  0  0
 25 43  1  0  0  0  0
M  END
> <r_user_dG.exp>
-6.6626190630157

$$$$
48
  -OEChem-05162309453D
 Structure written by MMmdl.
 43 46  0     0  0  0  0  0  0999 V2000
    3.5962  -50.2382    7.2860 O   0  0  0  0  0  0  0  0  0  0  0  0
    2.9915  -49.1832    6.9785 C   0  0  0  0  0  0  0  0  0  0  0  0
    3.5468  -48.0563    6.9856 O   0  0  0  0  0  0  0  0  0  0  0  0
    1.5667  -49.2814    6.6034 C   0  0  0  0  0  0  0  0  0  0  0  0
   -0.3493  -50.4961    6.2933 C   0  0  0  0  0  0  0  0  0  0  0  0
   -1.3483  -51.4866    6.2008 C   0  0  0  0  0  0  0  0  0  0  0  0
   -2.6508  -51.1171    5.7985 C   0  0  0  0  0  0  0  0  0  0  0  0
   -2.9320  -49.7715    5.4886 C   0  0  0  0  0  0  0  0  0  0  0  0
   -1.9224  -48.7928    5.5781 C   0  0  0  0  0  0  0  0  0  0  0  0
   -0.6057  -49.1301    5.9783 C   0  0  0  0  0  0  0  0  0  0  0  0
    0.6128  -48.3833    6.1734 C   0  0  0  0  0  0  0  0  0  0  0  0
    0.8068  -46.9172    5.9622 C   0  0  0  0  0  0  0  0  0  0  0  0
    0.7034  -46.1229    7.2813 C   0  0  0  0  0  0  0  0  0  0  0  0
   -0.7224  -46.0877    7.8568 C   0  0  0  0  0  0  0  0  0  0  0  0
   -1.5391  -45.3745    6.9378 O   0  0  0  0  0  0  0  0  0  0  0  0
   -2.8810  -45.1822    7.1989 C   0  0  0  0  0  0  0  0  0  0  0  0
   -5.6349  -44.5517    7.4221 C   0  0  0  0  0  0  0  0  0  0  0  0
   -4.8882  -44.0528    6.3462 C   0  0  0  0  0  0  0  0  0  0  0  0
   -3.5272  -44.3675    6.2431 C   0  0  0  0  0  0  0  0  0  0  0  0
    0.9807  -50.5349    6.6696 N   0  0  0  0  0  0  0  0  0  0  0  0
   -4.5301  -46.7432   10.1164 C   0  0  0  0  0  0  0  0  0  0  0  0
   -5.5194  -46.0063    9.4887 N   0  0  0  0  0  0  0  0  0  0  0  0
   -5.0107  -45.3807    8.3736 C   0  0  0  0  0  0  0  0  0  0  0  0
   -3.6231  -45.7297    8.3012 C   0  0  0  0  0  0  0  0  0  0  0  0
   -3.3547  -46.5895    9.4315 C   0  0  0  0  0  0  0  0  0  0  0  0
    4.4539  -48.1514    7.2515 H   0  0  0  0  0  0  0  0  0  0  0  0
   -1.1203  -52.5160    6.4348 H   0  0  0  0  0  0  0  0  0  0  0  0
   -3.4285  -51.8632    5.7286 H   0  0  0  0  0  0  0  0  0  0  0  0
   -3.2952  -49.7561    4.4504 H   0  0  0  0  0  0  0  0  0  0  0  0
   -3.7398  -49.4542    6.1645 H   0  0  0  0  0  0  0  0  0  0  0  0
   -2.1565  -47.7664    5.3372 H   0  0  0  0  0  0  0  0  0  0  0  0
    1.8021  -46.7504    5.5246 H   0  0  0  0  0  0  0  0  0  0  0  0
    0.0352  -46.5536    5.2676 H   0  0  0  0  0  0  0  0  0  0  0  0
    1.3685  -46.5890    8.0232 H   0  0  0  0  0  0  0  0  0  0  0  0
    1.0304  -45.0895    7.0937 H   0  0  0  0  0  0  0  0  0  0  0  0
   -1.1027  -47.1125    7.9797 H   0  0  0  0  0  0  0  0  0  0  0  0
   -0.7210  -45.5778    8.8315 H   0  0  0  0  0  0  0  0  0  0  0  0
   -6.6811  -44.3022    7.5206 H   0  0  0  0  0  0  0  0  0  0  0  0
   -5.3594  -43.4293    5.6009 H   0  0  0  0  0  0  0  0  0  0  0  0
   -2.9579  -43.9776    5.4123 H   0  0  0  0  0  0  0  0  0  0  0  0
   -4.6640  -47.3433   11.0043 H   0  0  0  0  0  0  0  0  0  0  0  0
   -2.5973  -46.1290   10.0829 H   0  0  0  0  0  0  0  0  0  0  0  0
   -2.9922  -47.5676    9.0823 H   0  0  0  0  0  0  0  0  0  0  0  0
  1  2  2  0  0  0  0
  2  3  1  0  0  0  0
  2  4  1  0  0  0  0
  4 11  2  0  0  0  0
  4 20  1  0  0  0  0
  5  6  1  0  0  0  0
  5 10  1  0  0  0  0
  5 20  2  0  0  0  0
  6  7  2  0  0  0  0
  7  8  1  0  0  0  0
  8  9  1  0  0  0  0
  9 10  2  0  0  0  0
 10 11  1  0  0  0  0
 11 12  1  0  0  0  0
 12 13  1  0  0  0  0
 13 14  1  0  0  0  0
 14 15  1  0  0  0  0
 15 16  1  0  0  0  0
 16 19  2  0  0  0  0
 16 24  1  0  0  0  0
 17 18  2  0  0  0  0
 17 23  1  0  0  0  0
 18 19  1  0  0  0  0
 21 22  2  0  0  0  0
 21 25  1  0  0  0  0
 22 23  1  0  0  0  0
 23 24  2  0  0  0  0
 24 25  1  0  0  0  0
  3 26  1  0  0  0  0
  6 27  1  0  0  0  0
  7 28  1  0  0  0  0
  8 29  1  0  0  0  0
  8 30  1  0  0  0  0
  9 31  1  0  0  0  0
 12 32  1  0  0  0  0
 12 33  1  0  0  0  0
 13 34  1  0  0  0  0
 13 35  1  0  0  0  0
 14 36  1  0  0  0  0
 14 37  1  0  0  0  0
 17 38  1  0  0  0  0
 18 39  1  0  0  0  0
 19 40  1  0  0  0  0
 21 41  1  0  0  0  0
 25 42  1  0  0  0  0
 25 43  1  0  0  0  0
M  END
> <r_user_dG.exp>
-6.6626190630157

$$$$
48
  -OEChem-05162309453D
 Structure written by MMmdl.
 43 46  0     0  0  0  0  0  0999 V2000
    3.5962  -50.2382    7.2860 O   0  0  0  0  0  0  0  0  0  0  0  0
    2.9915  -49.1832    6.9785 C   0  0  0  0  0  0  0  0  0  0  0  0
    3.5468  -48.0563    6.9856 O   0  0  0  0  0  0  0  0  0  0  0  0
    1.5667  -49.2814    6.6034 C   0  0  0  0  0  0  0  0  0  0  0  0
   -0.3493  -50.4961    6.2933 C   0  0  0  0  0  0  0  0  0  0  0  0
   -1.3483  -51.4866    6.2008 C   0  0  0  0  0  0  0  0  0  0  0  0
   -2.6508  -51.1171    5.7985 C   0  0  0  0  0  0  0  0  0  0  0  0
   -2.9320  -49.7715    5.4886 C   0  0  0  0  0  0  0  0  0  0  0  0
   -1.9224  -48.7928    5.5781 C   0  0  0  0  0  0  0  0  0  0  0  0
   -0.6057  -49.1301    5.9783 C   0  0  0  0  0  0  0  0  0  0  0  0
    0.6128  -48.3833    6.1734 C   0  0  0  0  0  0  0  0  0  0  0  0
    0.8068  -46.9172    5.9622 C   0  0  0  0  0  0  0  0  0  0  0  0
    0.7034  -46.1229    7.2813 C   0  0  0  0  0  0  0  0  0  0  0  0
   -0.7224  -46.0877    7.8568 C   0  0  0  0  0  0  0  0  0  0  0  0
   -1.5391  -45.3745    6.9378 O   0  0  0  0  0  0  0  0  0  0  0  0
   -2.8810  -45.1822    7.1989 C   0  0  0  0  0  0  0  0  0  0  0  0
   -5.6349  -44.5517    7.4221 C   0  0  0  0  0  0  0  0  0  0  0  0
   -4.8882  -44.0528    6.3462 C   0  0  0  0  0  0  0  0  0  0  0  0
   -3.5272  -44.3675    6.2431 C   0  0  0  0  0  0  0  0  0  0  0  0
    0.9807  -50.5349    6.6696 N   0  0  0  0  0  0  0  0  0  0  0  0
   -4.5301  -46.7432   10.1164 C   0  0  0  0  0  0  0  0  0  0  0  0
   -5.5194  -46.0063    9.4887 N   0  0  0  0  0  0  0  0  0  0  0  0
   -5.0107  -45.3807    8.3736 C   0  0  0  0  0  0  0  0  0  0  0  0
   -3.6231  -45.7297    8.3012 C   0  0  0  0  0  0  0  0  0  0  0  0
   -3.3547  -46.5895    9.4315 C   0  0  0  0  0  0  0  0  0  0  0  0
    4.4539  -48.1514    7.2515 H   0  0  0  0  0  0  0  0  0  0  0  0
   -1.1203  -52.5160    6.4348 H   0  0  0  0  0  0  0  0  0  0  0  0
   -2.8862  -51.7069    4.9003 H   0  0  0  0  0  0  0  0  0  0  0  0
   -3.3300  -51.4048    6.6145 H   0  0  0  0  0  0  0  0  0  0  0  0
   -3.9277  -49.4886    5.1805 H   0  0  0  0  0  0  0  0  0  0  0  0
   -2.1565  -47.7664    5.3372 H   0  0  0  0  0  0  0  0  0  0  0  0
    1.8021  -46.7504    5.5246 H   0  0  0  0  0  0  0  0  0  0  0  0
    0.0352  -46.5536    5.2676 H   0  0  0  0  0  0  0  0  0  0  0  0
    1.3685  -46.5890    8.0232 H   0  0  0  0  0  0  0  0  0  0  0  0
    1.0304  -45.0895    7.0937 H   0  0  0  0  0  0  0  0  0  0  0  0
   -1.1027  -47.1125    7.9797 H   0  0  0  0  0  0  0  0  0  0  0  0
   -0.7210  -45.5778    8.8315 H   0  0  0  0  0  0  0  0  0  0  0  0
   -6.6811  -44.3022    7.5206 H   0  0  0  0  0  0  0  0  0  0  0  0
   -5.3594  -43.4293    5.6009 H   0  0  0  0  0  0  0  0  0  0  0  0
   -2.9579  -43.9776    5.4123 H   0  0  0  0  0  0  0  0  0  0  0  0
   -4.6640  -47.3433   11.0043 H   0  0  0  0  0  0  0  0  0  0  0  0
   -2.5973  -46.1290   10.0829 H   0  0  0  0  0  0  0  0  0  0  0  0
   -2.9922  -47.5676    9.0823 H   0  0  0  0  0  0  0  0  0  0  0  0
  1  2  2  0  0  0  0
  2  3  1  0  0  0  0
  2  4  1  0  0  0  0
  4 11  1  0  0  0  0
  4 20  2  0  0  0  0
  5  6  2  0  0  0  0
  5 10  1  0  0  0  0
  5 20  1  0  0  0  0
  6  7  1  0  0  0  0
  7  8  1  0  0  0  0
  8  9  2  0  0  0  0
  9 10  1  0  0  0  0
 10 11  2  0  0  0  0
 11 12  1  0  0  0  0
 12 13  1  0  0  0  0
 13 14  1  0  0  0  0
 14 15  1  0  0  0  0
 15 16  1  0  0  0  0
 16 19  2  0  0  0  0
 16 24  1  0  0  0  0
 17 18  2  0  0  0  0
 17 23  1  0  0  0  0
 18 19  1  0  0  0  0
 21 22  2  0  0  0  0
 21 25  1  0  0  0  0
 22 23  1  0  0  0  0
 23 24  2  0  0  0  0
 24 25  1  0  0  0  0
  3 26  1  0  0  0  0
  6 27  1  0  0  0  0
  7 28  1  0  0  0  0
  7 29  1  0  0  0  0
  8 30  1  0  0  0  0
  9 31  1  0  0  0  0
 12 32  1  0  0  0  0
 12 33  1  0  0  0  0
 13 34  1  0  0  0  0
 13 35  1  0  0  0  0
 14 36  1  0  0  0  0
 14 37  1  0  0  0  0
 17 38  1  0  0  0  0
 18 39  1  0  0  0  0
 19 40  1  0  0  0  0
 21 41  1  0  0  0  0
 25 42  1  0  0  0  0
 25 43  1  0  0  0  0
M  END
> <r_user_dG.exp>
-6.6626190630157

$$$$
48
  -OEChem-05162309453D
 Structure written by MMmdl.
 43 46  0     0  0  0  0  0  0999 V2000
    3.5962  -50.2382    7.2860 O   0  0  0  0  0  0  0  0  0  0  0  0
    2.9915  -49.1832    6.9785 C   0  0  0  0  0  0  0  0  0  0  0  0
    3.5468  -48.0563    6.9856 O   0  0  0  0  0  0  0  0  0  0  0  0
    1.5667  -49.2814    6.6034 C   0  0  0  0  0  0  0  0  0  0  0  0
   -0.3493  -50.4961    6.2933 C   0  0  0  0  0  0  0  0  0  0  0  0
   -1.3483  -51.4866    6.2008 C   0  0  0  0  0  0  0  0  0  0  0  0
   -2.6508  -51.1171    5.7985 C   0  0  0  0  0  0  0  0  0  0  0  0
   -2.9320  -49.7715    5.4886 C   0  0  0  0  0  0  0  0  0  0  0  0
   -1.9224  -48.7928    5.5781 C   0  0  0  0  0  0  0  0  0  0  0  0
   -0.6057  -49.1301    5.9783 C   0  0  0  0  0  0  0  0  0  0  0  0
    0.6128  -48.3833    6.1734 C   0  0  0  0  0  0  0  0  0  0  0  0
    0.8068  -46.9172    5.9622 C   0  0  0  0  0  0  0  0  0  0  0  0
    0.7034  -46.1229    7.2813 C   0  0  0  0  0  0  0  0  0  0  0  0
   -0.7224  -46.0877    7.8568 C   0  0  0  0  0  0  0  0  0  0  0  0
   -1.5391  -45.3745    6.9378 O   0  0  0  0  0  0  0  0  0  0  0  0
   -2.8810  -45.1822    7.1989 C   0  0  0  0  0  0  0  0  0  0  0  0
   -5.6349  -44.5517    7.4221 C   0  0  0  0  0  0  0  0  0  0  0  0
   -4.8882  -44.0528    6.3462 C   0  0  0  0  0  0  0  0  0  0  0  0
   -3.5272  -44.3675    6.2431 C   0  0  0  0  0  0  0  0  0  0  0  0
    0.9807  -50.5349    6.6696 N   0  0  0  0  0  0  0  0  0  0  0  0
   -4.5301  -46.7432   10.1164 C   0  0  0  0  0  0  0  0  0  0  0  0
   -5.5194  -46.0063    9.4887 N   0  0  0  0  0  0  0  0  0  0  0  0
   -5.0107  -45.3807    8.3736 C   0  0  0  0  0  0  0  0  0  0  0  0
   -3.6231  -45.7297    8.3012 C   0  0  0  0  0  0  0  0  0  0  0  0
   -3.3547  -46.5895    9.4315 C   0  0  0  0  0  0  0  0  0  0  0  0
    4.4539  -48.1514    7.2515 H   0  0  0  0  0  0  0  0  0  0  0  0
   -0.9906  -52.2374    5.4808 H   0  0  0  0  0  0  0  0  0  0  0  0
   -1.4378  -51.9465    7.1960 H   0  0  0  0  0  0  0  0  0  0  0  0
   -3.4285  -51.8632    5.7286 H   0  0  0  0  0  0  0  0  0  0  0  0
   -3.9277  -49.4886    5.1805 H   0  0  0  0  0  0  0  0  0  0  0  0
   -2.1565  -47.7664    5.3372 H   0  0  0  0  0  0  0  0  0  0  0  0
    1.8021  -46.7504    5.5246 H   0  0  0  0  0  0  0  0  0  0  0  0
    0.0352  -46.5536    5.2676 H   0  0  0  0  0  0  0  0  0  0  0  0
    1.3685  -46.5890    8.0232 H   0  0  0  0  0  0  0  0  0  0  0  0
    1.0304  -45.0895    7.0937 H   0  0  0  0  0  0  0  0  0  0  0  0
   -1.1027  -47.1125    7.9797 H   0  0  0  0  0  0  0  0  0  0  0  0
   -0.7210  -45.5778    8.8315 H   0  0  0  0  0  0  0  0  0  0  0  0
   -6.6811  -44.3022    7.5206 H   0  0  0  0  0  0  0  0  0  0  0  0
   -5.3594  -43.4293    5.6009 H   0  0  0  0  0  0  0  0  0  0  0  0
   -2.9579  -43.9776    5.4123 H   0  0  0  0  0  0  0  0  0  0  0  0
   -4.6640  -47.3433   11.0043 H   0  0  0  0  0  0  0  0  0  0  0  0
   -2.5973  -46.1290   10.0829 H   0  0  0  0  0  0  0  0  0  0  0  0
   -2.9922  -47.5676    9.0823 H   0  0  0  0  0  0  0  0  0  0  0  0
  1  2  2  0  0  0  0
  2  3  1  0  0  0  0
  2  4  1  0  0  0  0
  4 11  2  0  0  0  0
  4 20  1  0  0  0  0
  5  6  1  0  0  0  0
  5 10  1  0  0  0  0
  5 20  2  0  0  0  0
  6  7  1  0  0  0  0
  7  8  2  0  0  0  0
  8  9  1  0  0  0  0
  9 10  2  0  0  0  0
 10 11  1  0  0  0  0
 11 12  1  0  0  0  0
 12 13  1  0  0  0  0
 13 14  1  0  0  0  0
 14 15  1  0  0  0  0
 15 16  1  0  0  0  0
 16 19  2  0  0  0  0
 16 24  1  0  0  0  0
 17 18  2  0  0  0  0
 17 23  1  0  0  0  0
 18 19  1  0  0  0  0
 21 22  2  0  0  0  0
 21 25  1  0  0  0  0
 22 23  1  0  0  0  0
 23 24  2  0  0  0  0
 24 25  1  0  0  0  0
  3 26  1  0  0  0  0
  6 27  1  0  0  0  0
  6 28  1  0  0  0  0
  7 29  1  0  0  0  0
  8 30  1  0  0  0  0
  9 31  1  0  0  0  0
 12 32  1  0  0  0  0
 12 33  1  0  0  0  0
 13 34  1  0  0  0  0
 13 35  1  0  0  0  0
 14 36  1  0  0  0  0
 14 37  1  0  0  0  0
 17 38  1  0  0  0  0
 18 39  1  0  0  0  0
 19 40  1  0  0  0  0
 21 41  1  0  0  0  0
 25 42  1  0  0  0  0
 25 43  1  0  0  0  0
M  END
> <r_user_dG.exp>
-6.6626190630157

$$$$
48
  -OEChem-05162309453D
 Structure written by MMmdl.
 43 46  0     0  0  0  0  0  0999 V2000
    3.5962  -50.2382    7.2860 O   0  0  0  0  0  0  0  0  0  0  0  0
    2.9915  -49.1832    6.9785 C   0  0  0  0  0  0  0  0  0  0  0  0
    3.5468  -48.0563    6.9856 O   0  0  0  0  0  0  0  0  0  0  0  0
    1.5667  -49.2814    6.6034 C   0  0  0  0  0  0  0  0  0  0  0  0
   -0.3493  -50.4961    6.2933 C   0  0  0  0  0  0  0  0  0  0  0  0
   -1.3483  -51.4866    6.2008 C   0  0  0  0  0  0  0  0  0  0  0  0
   -2.6508  -51.1171    5.7985 C   0  0  0  0  0  0  0  0  0  0  0  0
   -2.9320  -49.7715    5.4886 C   0  0  0  0  0  0  0  0  0  0  0  0
   -1.9224  -48.7928    5.5781 C   0  0  0  0  0  0  0  0  0  0  0  0
   -0.6057  -49.1301    5.9783 C   0  0  0  0  0  0  0  0  0  0  0  0
    0.6128  -48.3833    6.1734 C   0  0  0  0  0  0  0  0  0  0  0  0
    0.8068  -46.9172    5.9622 C   0  0  0  0  0  0  0  0  0  0  0  0
    0.7034  -46.1229    7.2813 C   0  0  0  0  0  0  0  0  0  0  0  0
   -0.7224  -46.0877    7.8568 C   0  0  0  0  0  0  0  0  0  0  0  0
   -1.5391  -45.3745    6.9378 O   0  0  0  0  0  0  0  0  0  0  0  0
   -2.8810  -45.1822    7.1989 C   0  0  0  0  0  0  0  0  0  0  0  0
   -5.6349  -44.5517    7.4221 C   0  0  0  0  0  0  0  0  0  0  0  0
   -4.8882  -44.0528    6.3462 C   0  0  0  0  0  0  0  0  0  0  0  0
   -3.5272  -44.3675    6.2431 C   0  0  0  0  0  0  0  0  0  0  0  0
    0.9807  -50.5349    6.6696 N   0  0  0  0  0  0  0  0  0  0  0  0
   -4.5301  -46.7432   10.1164 C   0  0  0  0  0  0  0  0  0  0  0  0
   -5.5194  -46.0063    9.4887 N   0  0  0  0  0  0  0  0  0  0  0  0
   -5.0107  -45.3807    8.3736 C   0  0  0  0  0  0  0  0  0  0  0  0
   -3.6231  -45.7297    8.3012 C   0  0  0  0  0  0  0  0  0  0  0  0
   -3.3547  -46.5895    9.4315 C   0  0  0  0  0  0  0  0  0  0  0  0
    4.4539  -48.1514    7.2515 H   0  0  0  0  0  0  0  0  0  0  0  0
   -1.1203  -52.5160    6.4348 H   0  0  0  0  0  0  0  0  0  0  0  0
   -3.4285  -51.8632    5.7286 H   0  0  0  0  0  0  0  0  0  0  0  0
   -3.9277  -49.4886    5.1805 H   0  0  0  0  0  0  0  0  0  0  0  0
   -1.8381  -48.3398    4.5793 H   0  0  0  0  0  0  0  0  0  0  0  0
   -2.2820  -48.0386    6.2936 H   0  0  0  0  0  0  0  0  0  0  0  0
    1.8021  -46.7504    5.5246 H   0  0  0  0  0  0  0  0  0  0  0  0
    0.0352  -46.5536    5.2676 H   0  0  0  0  0  0  0  0  0  0  0  0
    1.3685  -46.5890    8.0232 H   0  0  0  0  0  0  0  0  0  0  0  0
    1.0304  -45.0895    7.0937 H   0  0  0  0  0  0  0  0  0  0  0  0
   -1.1027  -47.1125    7.9797 H   0  0  0  0  0  0  0  0  0  0  0  0
   -0.7210  -45.5778    8.8315 H   0  0  0  0  0  0  0  0  0  0  0  0
   -6.6811  -44.3022    7.5206 H   0  0  0  0  0  0  0  0  0  0  0  0
   -5.3594  -43.4293    5.6009 H   0  0  0  0  0  0  0  0  0  0  0  0
   -2.9579  -43.9776    5.4123 H   0  0  0  0  0  0  0  0  0  0  0  0
   -4.6640  -47.3433   11.0043 H   0  0  0  0  0  0  0  0  0  0  0  0
   -2.5973  -46.1290   10.0829 H   0  0  0  0  0  0  0  0  0  0  0  0
   -2.9922  -47.5676    9.0823 H   0  0  0  0  0  0  0  0  0  0  0  0
  1  2  2  0  0  0  0
  2  3  1  0  0  0  0
  2  4  1  0  0  0  0
  4 11  1  0  0  0  0
  4 20  2  0  0  0  0
  5  6  2  0  0  0  0
  5 10  1  0  0  0  0
  5 20  1  0  0  0  0
  6  7  1  0  0  0  0
  7  8  2  0  0  0  0
  8  9  1  0  0  0  0
  9 10  1  0  0  0  0
 10 11  2  0  0  0  0
 11 12  1  0  0  0  0
 12 13  1  0  0  0  0
 13 14  1  0  0  0  0
 14 15  1  0  0  0  0
 15 16  1  0  0  0  0
 16 19  2  0  0  0  0
 16 24  1  0  0  0  0
 17 18  2  0  0  0  0
 17 23  1  0  0  0  0
 18 19  1  0  0  0  0
 21 22  2  0  0  0  0
 21 25  1  0  0  0  0
 22 23  1  0  0  0  0
 23 24  2  0  0  0  0
 24 25  1  0  0  0  0
  3 26  1  0  0  0  0
  6 27  1  0  0  0  0
  7 28  1  0  0  0  0
  8 29  1  0  0  0  0
  9 30  1  0  0  0  0
  9 31  1  0  0  0  0
 12 32  1  0  0  0  0
 12 33  1  0  0  0  0
 13 34  1  0  0  0  0
 13 35  1  0  0  0  0
 14 36  1  0  0  0  0
 14 37  1  0  0  0  0
 17 38  1  0  0  0  0
 18 39  1  0  0  0  0
 19 40  1  0  0  0  0
 21 41  1  0  0  0  0
 25 42  1  0  0  0  0
 25 43  1  0  0  0  0
M  END
> <r_user_dG.exp>
-6.6626190630157

$$$$
48
  -OEChem-05162309453D
 Structure written by MMmdl.
 43 46  0     1  0  0  0  0  0999 V2000
    3.5962  -50.2382    7.2860 O   0  0  0  0  0  0  0  0  0  0  0  0
    2.9915  -49.1832    6.9785 C   0  0  0  0  0  0  0  0  0  0  0  0
    3.5468  -48.0563    6.9856 O   0  0  0  0  0  0  0  0  0  0  0  0
    1.5667  -49.2814    6.6034 C   0  0  0  0  0  0  0  0  0  0  0  0
   -0.3493  -50.4961    6.2933 C   0  0  0  0  0  0  0  0  0  0  0  0
   -1.3483  -51.4866    6.2008 C   0  0  0  0  0  0  0  0  0  0  0  0
   -2.6508  -51.1171    5.7985 C   0  0  0  0  0  0  0  0  0  0  0  0
   -2.9320  -49.7715    5.4886 C   0  0  0  0  0  0  0  0  0  0  0  0
   -1.9224  -48.7928    5.5781 C   0  0  0  0  0  0  0  0  0  0  0  0
   -0.6057  -49.1301    5.9783 C   0  0  3  0  0  0  0  0  0  0  0  0
    0.6128  -48.3833    6.1734 C   0  0  0  0  0  0  0  0  0  0  0  0
    0.8068  -46.9172    5.9622 C   0  0  0  0  0  0  0  0  0  0  0  0
    0.7034  -46.1229    7.2813 C   0  0  0  0  0  0  0  0  0  0  0  0
   -0.7224  -46.0877    7.8568 C   0  0  0  0  0  0  0  0  0  0  0  0
   -1.5391  -45.3745    6.9378 O   0  0  0  0  0  0  0  0  0  0  0  0
   -2.8810  -45.1822    7.1989 C   0  0  0  0  0  0  0  0  0  0  0  0
   -5.6349  -44.5517    7.4221 C   0  0  0  0  0  0  0  0  0  0  0  0
   -4.8882  -44.0528    6.3462 C   0  0  0  0  0  0  0  0  0  0  0  0
   -3.5272  -44.3675    6.2431 C   0  0  0  0  0  0  0  0  0  0  0  0
    0.9807  -50.5349    6.6696 N   0  0  0  0  0  0  0  0  0  0  0  0
   -4.5301  -46.7432   10.1164 C   0  0  0  0  0  0  0  0  0  0  0  0
   -5.5194  -46.0063    9.4887 N   0  0  0  0  0  0  0  0  0  0  0  0
   -5.0107  -45.3807    8.3736 C   0  0  0  0  0  0  0  0  0  0  0  0
   -3.6231  -45.7297    8.3012 C   0  0  0  0  0  0  0  0  0  0  0  0
   -3.3547  -46.5895    9.4315 C   0  0  0  0  0  0  0  0  0  0  0  0
    4.4539  -48.1514    7.2515 H   0  0  0  0  0  0  0  0  0  0  0  0
   -1.1203  -52.5160    6.4348 H   0  0  0  0  0  0  0  0  0  0  0  0
   -3.4285  -51.8632    5.7286 H   0  0  0  0  0  0  0  0  0  0  0  0
   -3.9277  -49.4886    5.1805 H   0  0  0  0  0  0  0  0  0  0  0  0
   -2.1565  -47.7664    5.3372 H   0  0  0  0  0  0  0  0  0  0  0  0
   -0.3296  -49.3153    4.9298 H   0  0  0  0  0  0  0  0  0  0  0  0
    1.8021  -46.7504    5.5246 H   0  0  0  0  0  0  0  0  0  0  0  0
    0.0352  -46.5536    5.2676 H   0  0  0  0  0  0  0  0  0  0  0  0
    1.3685  -46.5890    8.0232 H   0  0  0  0  0  0  0  0  0  0  0  0
    1.0304  -45.0895    7.0937 H   0  0  0  0  0  0  0  0  0  0  0  0
   -1.1027  -47.1125    7.9797 H   0  0  0  0  0  0  0  0  0  0  0  0
   -0.7210  -45.5778    8.8315 H   0  0  0  0  0  0  0  0  0  0  0  0
   -6.6811  -44.3022    7.5206 H   0  0  0  0  0  0  0  0  0  0  0  0
   -5.3594  -43.4293    5.6009 H   0  0  0  0  0  0  0  0  0  0  0  0
   -2.9579  -43.9776    5.4123 H   0  0  0  0  0  0  0  0  0  0  0  0
   -4.4041  -46.3862   11.1492 H   0  0  0  0  0  0  0  0  0  0  0  0
   -4.8136  -47.8060   10.1278 H   0  0  0  0  0  0  0  0  0  0  0  0
   -2.4025  -47.0296    9.6884 H   0  0  0  0  0  0  0  0  0  0  0  0
  1  2  2  0  0  0  0
  2  3  1  0  0  0  0
  2  4  1  0  0  0  0
  4 11  2  0  0  0  0
  4 20  1  0  0  0  0
  5  6  1  0  0  0  0
  5 10  1  0  0  0  0
  5 20  2  0  0  0  0
  6  7  2  0  0  0  0
  7  8  1  0  0  0  0
  8  9  2  0  0  0  0
  9 10  1  0  0  0  0
 10 11  1  0  0  0  0
 11 12  1  0  0  0  0
 12 13  1  0  0  0  0
 13 14  1  0  0  0  0
 14 15  1  0  0  0  0
 15 16  1  0  0  0  0
 16 19  2  0  0  0  0
 16 24  1  0  0  0  0
 17 18  2  0  0  0  0
 17 23  1  0  0  0  0
 18 19  1  0  0  0  0
 21 22  1  0  0  0  0
 21 25  1  0  0  0  0
 22 23  2  0  0  0  0
 23 24  1  0  0  0  0
 24 25  2  0  0  0  0
  3 26  1  0  0  0  0
  6 27  1  0  0  0  0
  7 28  1  0  0  0  0
  8 29  1  0  0  0  0
  9 30  1  0  0  0  0
 10 31  1  0  0  0  0
 12 32  1  0  0  0  0
 12 33  1  0  0  0  0
 13 34  1  0  0  0  0
 13 35  1  0  0  0  0
 14 36  1  0  0  0  0
 14 37  1  0  0  0  0
 17 38  1  0  0  0  0
 18 39  1  0  0  0  0
 19 40  1  0  0  0  0
 21 41  1  0  0  0  0
 21 42  1  0  0  0  0
 25 43  1  0  0  0  0
M  END
> <r_user_dG.exp>
-6.6626190630157

$$$$
48
  -OEChem-05162309453D
 Structure written by MMmdl.
 43 46  0     1  0  0  0  0  0999 V2000
    3.5962  -50.2382    7.2860 O   0  0  0  0  0  0  0  0  0  0  0  0
    2.9915  -49.1832    6.9785 C   0  0  0  0  0  0  0  0  0  0  0  0
    3.5468  -48.0563    6.9856 O   0  0  0  0  0  0  0  0  0  0  0  0
    1.5667  -49.2814    6.6034 C   0  0  0  0  0  0  0  0  0  0  0  0
   -0.3493  -50.4961    6.2933 C   0  0  3  0  0  0  0  0  0  0  0  0
   -1.3483  -51.4866    6.2008 C   0  0  0  0  0  0  0  0  0  0  0  0
   -2.6508  -51.1171    5.7985 C   0  0  0  0  0  0  0  0  0  0  0  0
   -2.9320  -49.7715    5.4886 C   0  0  0  0  0  0  0  0  0  0  0  0
   -1.9224  -48.7928    5.5781 C   0  0  0  0  0  0  0  0  0  0  0  0
   -0.6057  -49.1301    5.9783 C   0  0  0  0  0  0  0  0  0  0  0  0
    0.6128  -48.3833    6.1734 C   0  0  0  0  0  0  0  0  0  0  0  0
    0.8068  -46.9172    5.9622 C   0  0  0  0  0  0  0  0  0  0  0  0
    0.7034  -46.1229    7.2813 C   0  0  0  0  0  0  0  0  0  0  0  0
   -0.7224  -46.0877    7.8568 C   0  0  0  0  0  0  0  0  0  0  0  0
   -1.5391  -45.3745    6.9378 O   0  0  0  0  0  0  0  0  0  0  0  0
   -2.8810  -45.1822    7.1989 C   0  0  0  0  0  0  0  0  0  0  0  0
   -5.6349  -44.5517    7.4221 C   0  0  0  0  0  0  0  0  0  0  0  0
   -4.8882  -44.0528    6.3462 C   0  0  0  0  0  0  0  0  0  0  0  0
   -3.5272  -44.3675    6.2431 C   0  0  0  0  0  0  0  0  0  0  0  0
    0.9807  -50.5349    6.6696 N   0  0  0  0  0  0  0  0  0  0  0  0
   -4.5301  -46.7432   10.1164 C   0  0  0  0  0  0  0  0  0  0  0  0
   -5.5194  -46.0063    9.4887 N   0  0  0  0  0  0  0  0  0  0  0  0
   -5.0107  -45.3807    8.3736 C   0  0  0  0  0  0  0  0  0  0  0  0
   -3.6231  -45.7297    8.3012 C   0  0  0  0  0  0  0  0  0  0  0  0
   -3.3547  -46.5895    9.4315 C   0  0  0  0  0  0  0  0  0  0  0  0
    4.4539  -48.1514    7.2515 H   0  0  0  0  0  0  0  0  0  0  0  0
   -0.0617  -50.6854    5.2486 H   0  0  0  0  0  0  0  0  0  0  0  0
   -1.1203  -52.5160    6.4348 H   0  0  0  0  0  0  0  0  0  0  0  0
   -3.4285  -51.8632    5.7286 H   0  0  0  0  0  0  0  0  0  0  0  0
   -3.9277  -49.4886    5.1805 H   0  0  0  0  0  0  0  0  0  0  0  0
   -2.1565  -47.7664    5.3372 H   0  0  0  0  0  0  0  0  0  0  0  0
    1.8021  -46.7504    5.5246 H   0  0  0  0  0  0  0  0  0  0  0  0
    0.0352  -46.5536    5.2676 H   0  0  0  0  0  0  0  0  0  0  0  0
    1.3685  -46.5890    8.0232 H   0  0  0  0  0  0  0  0  0  0  0  0
    1.0304  -45.0895    7.0937 H   0  0  0  0  0  0  0  0  0  0  0  0
   -1.1027  -47.1125    7.9797 H   0  0  0  0  0  0  0  0  0  0  0  0
   -0.7210  -45.5778    8.8315 H   0  0  0  0  0  0  0  0  0  0  0  0
   -6.6811  -44.3022    7.5206 H   0  0  0  0  0  0  0  0  0  0  0  0
   -5.3594  -43.4293    5.6009 H   0  0  0  0  0  0  0  0  0  0  0  0
   -2.9579  -43.9776    5.4123 H   0  0  0  0  0  0  0  0  0  0  0  0
   -4.4041  -46.3862   11.1492 H   0  0  0  0  0  0  0  0  0  0  0  0
   -4.8136  -47.8060   10.1278 H   0  0  0  0  0  0  0  0  0  0  0  0
   -2.4025  -47.0296    9.6884 H   0  0  0  0  0  0  0  0  0  0  0  0
  1  2  2  0  0  0  0
  2  3  1  0  0  0  0
  2  4  1  0  0  0  0
  4 11  1  0  0  0  0
  4 20  2  0  0  0  0
  5  6  1  0  0  0  0
  5 10  1  0  0  0  0
  5 20  1  0  0  0  0
  6  7  2  0  0  0  0
  7  8  1  0  0  0  0
  8  9  2  0  0  0  0
  9 10  1  0  0  0  0
 10 11  2  0  0  0  0
 11 12  1  0  0  0  0
 12 13  1  0  0  0  0
 13 14  1  0  0  0  0
 14 15  1  0  0  0  0
 15 16  1  0  0  0  0
 16 19  2  0  0  0  0
 16 24  1  0  0  0  0
 17 18  2  0  0  0  0
 17 23  1  0  0  0  0
 18 19  1  0  0  0  0
 21 22  1  0  0  0  0
 21 25  1  0  0  0  0
 22 23  2  0  0  0  0
 23 24  1  0  0  0  0
 24 25  2  0  0  0  0
  3 26  1  0  0  0  0
  5 27  1  0  0  0  0
  6 28  1  0  0  0  0
  7 29  1  0  0  0  0
  8 30  1  0  0  0  0
  9 31  1  0  0  0  0
 12 32  1  0  0  0  0
 12 33  1  0  0  0  0
 13 34  1  0  0  0  0
 13 35  1  0  0  0  0
 14 36  1  0  0  0  0
 14 37  1  0  0  0  0
 17 38  1  0  0  0  0
 18 39  1  0  0  0  0
 19 40  1  0  0  0  0
 21 41  1  0  0  0  0
 21 42  1  0  0  0  0
 25 43  1  0  0  0  0
M  END
> <r_user_dG.exp>
-6.6626190630157

$$$$
48
  -OEChem-05162309453D
 Structure written by MMmdl.
 43 46  0     1  0  0  0  0  0999 V2000
    3.5962  -50.2382    7.2860 O   0  0  0  0  0  0  0  0  0  0  0  0
    2.9915  -49.1832    6.9785 C   0  0  0  0  0  0  0  0  0  0  0  0
    3.5468  -48.0563    6.9856 O   0  0  0  0  0  0  0  0  0  0  0  0
    1.5667  -49.2814    6.6034 C   0  0  3  0  0  0  0  0  0  0  0  0
   -0.3493  -50.4961    6.2933 C   0  0  0  0  0  0  0  0  0  0  0  0
   -1.3483  -51.4866    6.2008 C   0  0  0  0  0  0  0  0  0  0  0  0
   -2.6508  -51.1171    5.7985 C   0  0  0  0  0  0  0  0  0  0  0  0
   -2.9320  -49.7715    5.4886 C   0  0  0  0  0  0  0  0  0  0  0  0
   -1.9224  -48.7928    5.5781 C   0  0  0  0  0  0  0  0  0  0  0  0
   -0.6057  -49.1301    5.9783 C   0  0  0  0  0  0  0  0  0  0  0  0
    0.6128  -48.3833    6.1734 C   0  0  0  0  0  0  0  0  0  0  0  0
    0.8068  -46.9172    5.9622 C   0  0  0  0  0  0  0  0  0  0  0  0
    0.7034  -46.1229    7.2813 C   0  0  0  0  0  0  0  0  0  0  0  0
   -0.7224  -46.0877    7.8568 C   0  0  0  0  0  0  0  0  0  0  0  0
   -1.5391  -45.3745    6.9378 O   0  0  0  0  0  0  0  0  0  0  0  0
   -2.8810  -45.1822    7.1989 C   0  0  0  0  0  0  0  0  0  0  0  0
   -5.6349  -44.5517    7.4221 C   0  0  0  0  0  0  0  0  0  0  0  0
   -4.8882  -44.0528    6.3462 C   0  0  0  0  0  0  0  0  0  0  0  0
   -3.5272  -44.3675    6.2431 C   0  0  0  0  0  0  0  0  0  0  0  0
    0.9807  -50.5349    6.6696 N   0  0  0  0  0  0  0  0  0  0  0  0
   -4.5301  -46.7432   10.1164 C   0  0  0  0  0  0  0  0  0  0  0  0
   -5.5194  -46.0063    9.4887 N   0  0  0  0  0  0  0  0  0  0  0  0
   -5.0107  -45.3807    8.3736 C   0  0  0  0  0  0  0  0  0  0  0  0
   -3.6231  -45.7297    8.3012 C   0  0  3  0  0  0  0  0  0  0  0  0
   -3.3547  -46.5895    9.4315 C   0  0  0  0  0  0  0  0  0  0  0  0
    4.4539  -48.1514    7.2515 H   0  0  0  0  0  0  0  0  0  0  0  0
    1.2777  -49.0901    7.6474 H   0  0  0  0  0  0  0  0  0  0  0  0
   -1.1203  -52.5160    6.4348 H   0  0  0  0  0  0  0  0  0  0  0  0
   -3.4285  -51.8632    5.7286 H   0  0  0  0  0  0  0  0  0  0  0  0
   -3.9277  -49.4886    5.1805 H   0  0  0  0  0  0  0  0  0  0  0  0
   -2.1565  -47.7664    5.3372 H   0  0  0  0  0  0  0  0  0  0  0  0
    1.8021  -46.7504    5.5246 H   0  0  0  0  0  0  0  0  0  0  0  0
    0.0352  -46.5536    5.2676 H   0  0  0  0  0  0  0  0  0  0  0  0
    1.3685  -46.5890    8.0232 H   0  0  0  0  0  0  0  0  0  0  0  0
    1.0304  -45.0895    7.0937 H   0  0  0  0  0  0  0  0  0  0  0  0
   -1.1027  -47.1125    7.9797 H   0  0  0  0  0  0  0  0  0  0  0  0
   -0.7210  -45.5778    8.8315 H   0  0  0  0  0  0  0  0  0  0  0  0
   -6.6811  -44.3022    7.5206 H   0  0  0  0  0  0  0  0  0  0  0  0
   -5.3594  -43.4293    5.6009 H   0  0  0  0  0  0  0  0  0  0  0  0
   -2.9579  -43.9776    5.4123 H   0  0  0  0  0  0  0  0  0  0  0  0
   -4.6640  -47.3433   11.0043 H   0  0  0  0  0  0  0  0  0  0  0  0
   -3.3694  -44.8493    8.9100 H   0  0  0  0  0  0  0  0  0  0  0  0
   -2.4025  -47.0296    9.6884 H   0  0  0  0  0  0  0  0  0  0  0  0
  1  2  2  0  0  0  0
  2  3  1  0  0  0  0
  2  4  1  0  0  0  0
  4 11  1  0  0  0  0
  4 20  1  0  0  0  0
  5  6  1  0  0  0  0
  5 10  1  0  0  0  0
  5 20  2  0  0  0  0
  6  7  2  0  0  0  0
  7  8  1  0  0  0  0
  8  9  2  0  0  0  0
  9 10  1  0  0  0  0
 10 11  2  0  0  0  0
 11 12  1  0  0  0  0
 12 13  1  0  0  0  0
 13 14  1  0  0  0  0
 14 15  1  0  0  0  0
 15 16  1  0  0  0  0
 16 19  2  0  0  0  0
 16 24  1  0  0  0  0
 17 18  2  0  0  0  0
 17 23  1  0  0  0  0
 18 19  1  0  0  0  0
 21 22  1  0  0  0  0
 21 25  2  0  0  0  0
 22 23  2  0  0  0  0
 23 24  1  0  0  0  0
 24 25  1  0  0  0  0
  3 26  1  0  0  0  0
  4 27  1  0  0  0  0
  6 28  1  0  0  0  0
  7 29  1  0  0  0  0
  8 30  1  0  0  0  0
  9 31  1  0  0  0  0
 12 32  1  0  0  0  0
 12 33  1  0  0  0  0
 13 34  1  0  0  0  0
 13 35  1  0  0  0  0
 14 36  1  0  0  0  0
 14 37  1  0  0  0  0
 17 38  1  0  0  0  0
 18 39  1  0  0  0  0
 19 40  1  0  0  0  0
 21 41  1  0  0  0  0
 24 42  1  0  0  0  0
 25 43  1  0  0  0  0
M  END
> <r_user_dG.exp>
-6.6626190630157

$$$$
48
  -OEChem-05162309453D
 Structure written by MMmdl.
 43 46  0     1  0  0  0  0  0999 V2000
    3.5962  -50.2382    7.2860 O   0  0  0  0  0  0  0  0  0  0  0  0
    2.9915  -49.1832    6.9785 C   0  0  0  0  0  0  0  0  0  0  0  0
    3.5468  -48.0563    6.9856 O   0  0  0  0  0  0  0  0  0  0  0  0
    1.5667  -49.2814    6.6034 C   0  0  3  0  0  0  0  0  0  0  0  0
   -0.3493  -50.4961    6.2933 C   0  0  0  0  0  0  0  0  0  0  0  0
   -1.3483  -51.4866    6.2008 C   0  0  0  0  0  0  0  0  0  0  0  0
   -2.6508  -51.1171    5.7985 C   0  0  0  0  0  0  0  0  0  0  0  0
   -2.9320  -49.7715    5.4886 C   0  0  0  0  0  0  0  0  0  0  0  0
   -1.9224  -48.7928    5.5781 C   0  0  0  0  0  0  0  0  0  0  0  0
   -0.6057  -49.1301    5.9783 C   0  0  0  0  0  0  0  0  0  0  0  0
    0.6128  -48.3833    6.1734 C   0  0  0  0  0  0  0  0  0  0  0  0
    0.8068  -46.9172    5.9622 C   0  0  0  0  0  0  0  0  0  0  0  0
    0.7034  -46.1229    7.2813 C   0  0  0  0  0  0  0  0  0  0  0  0
   -0.7224  -46.0877    7.8568 C   0  0  0  0  0  0  0  0  0  0  0  0
   -1.5391  -45.3745    6.9378 O   0  0  0  0  0  0  0  0  0  0  0  0
   -2.8810  -45.1822    7.1989 C   0  0  0  0  0  0  0  0  0  0  0  0
   -5.6349  -44.5517    7.4221 C   0  0  0  0  0  0  0  0  0  0  0  0
   -4.8882  -44.0528    6.3462 C   0  0  0  0  0  0  0  0  0  0  0  0
   -3.5272  -44.3675    6.2431 C   0  0  0  0  0  0  0  0  0  0  0  0
    0.9807  -50.5349    6.6696 N   0  0  0  0  0  0  0  0  0  0  0  0
   -4.5301  -46.7432   10.1164 C   0  0  0  0  0  0  0  0  0  0  0  0
   -5.5194  -46.0063    9.4887 N   0  0  0  0  0  0  0  0  0  0  0  0
   -5.0107  -45.3807    8.3736 C   0  0  3  0  0  0  0  0  0  0  0  0
   -3.6231  -45.7297    8.3012 C   0  0  0  0  0  0  0  0  0  0  0  0
   -3.3547  -46.5895    9.4315 C   0  0  0  0  0  0  0  0  0  0  0  0
    4.4539  -48.1514    7.2515 H   0  0  0  0  0  0  0  0  0  0  0  0
    1.2777  -49.0901    7.6474 H   0  0  0  0  0  0  0  0  0  0  0  0
   -1.1203  -52.5160    6.4348 H   0  0  0  0  0  0  0  0  0  0  0  0
   -3.4285  -51.8632    5.7286 H   0  0  0  0  0  0  0  0  0  0  0  0
   -3.9277  -49.4886    5.1805 H   0  0  0  0  0  0  0  0  0  0  0  0
   -2.1565  -47.7664    5.3372 H   0  0  0  0  0  0  0  0  0  0  0  0
    1.8021  -46.7504    5.5246 H   0  0  0  0  0  0  0  0  0  0  0  0
    0.0352  -46.5536    5.2676 H   0  0  0  0  0  0  0  0  0  0  0  0
    1.3685  -46.5890    8.0232 H   0  0  0  0  0  0  0  0  0  0  0  0
    1.0304  -45.0895    7.0937 H   0  0  0  0  0  0  0  0  0  0  0  0
   -1.1027  -47.1125    7.9797 H   0  0  0  0  0  0  0  0  0  0  0  0
   -0.7210  -45.5778    8.8315 H   0  0  0  0  0  0  0  0  0  0  0  0
   -6.6811  -44.3022    7.5206 H   0  0  0  0  0  0  0  0  0  0  0  0
   -5.3594  -43.4293    5.6009 H   0  0  0  0  0  0  0  0  0  0  0  0
   -2.9579  -43.9776    5.4123 H   0  0  0  0  0  0  0  0  0  0  0  0
   -4.6640  -47.3433   11.0043 H   0  0  0  0  0  0  0  0  0  0  0  0
   -4.7593  -44.4984    8.9806 H   0  0  0  0  0  0  0  0  0  0  0  0
   -2.4025  -47.0296    9.6884 H   0  0  0  0  0  0  0  0  0  0  0  0
  1  2  2  0  0  0  0
  2  3  1  0  0  0  0
  2  4  1  0  0  0  0
  4 11  1  0  0  0  0
  4 20  1  0  0  0  0
  5  6  1  0  0  0  0
  5 10  1  0  0  0  0
  5 20  2  0  0  0  0
  6  7  2  0  0  0  0
  7  8  1  0  0  0  0
  8  9  2  0  0  0  0
  9 10  1  0  0  0  0
 10 11  2  0  0  0  0
 11 12  1  0  0  0  0
 12 13  1  0  0  0  0
 13 14  1  0  0  0  0
 14 15  1  0  0  0  0
 15 16  1  0  0  0  0
 16 19  2  0  0  0  0
 16 24  1  0  0  0  0
 17 18  2  0  0  0  0
 17 23  1  0  0  0  0
 18 19  1  0  0  0  0
 21 22  2  0  0  0  0
 21 25  1  0  0  0  0
 22 23  1  0  0  0  0
 23 24  1  0  0  0  0
 24 25  2  0  0  0  0
  3 26  1  0  0  0  0
  4 27  1  0  0  0  0
  6 28  1  0  0  0  0
  7 29  1  0  0  0  0
  8 30  1  0  0  0  0
  9 31  1  0  0  0  0
 12 32  1  0  0  0  0
 12 33  1  0  0  0  0
 13 34  1  0  0  0  0
 13 35  1  0  0  0  0
 14 36  1  0  0  0  0
 14 37  1  0  0  0  0
 17 38  1  0  0  0  0
 18 39  1  0  0  0  0
 19 40  1  0  0  0  0
 21 41  1  0  0  0  0
 23 42  1  0  0  0  0
 25 43  1  0  0  0  0
M  END
> <r_user_dG.exp>
-6.6626190630157

$$$$
48
  -OEChem-05162309453D
 Structure written by MMmdl.
 43 46  0     1  0  0  0  0  0999 V2000
    3.5962  -50.2382    7.2860 O   0  0  0  0  0  0  0  0  0  0  0  0
    2.9915  -49.1832    6.9785 C   0  0  0  0  0  0  0  0  0  0  0  0
    3.5468  -48.0563    6.9856 O   0  0  0  0  0  0  0  0  0  0  0  0
    1.5667  -49.2814    6.6034 C   0  0  3  0  0  0  0  0  0  0  0  0
   -0.3493  -50.4961    6.2933 C   0  0  0  0  0  0  0  0  0  0  0  0
   -1.3483  -51.4866    6.2008 C   0  0  0  0  0  0  0  0  0  0  0  0
   -2.6508  -51.1171    5.7985 C   0  0  0  0  0  0  0  0  0  0  0  0
   -2.9320  -49.7715    5.4886 C   0  0  0  0  0  0  0  0  0  0  0  0
   -1.9224  -48.7928    5.5781 C   0  0  0  0  0  0  0  0  0  0  0  0
   -0.6057  -49.1301    5.9783 C   0  0  0  0  0  0  0  0  0  0  0  0
    0.6128  -48.3833    6.1734 C   0  0  0  0  0  0  0  0  0  0  0  0
    0.8068  -46.9172    5.9622 C   0  0  0  0  0  0  0  0  0  0  0  0
    0.7034  -46.1229    7.2813 C   0  0  0  0  0  0  0  0  0  0  0  0
   -0.7224  -46.0877    7.8568 C   0  0  0  0  0  0  0  0  0  0  0  0
   -1.5391  -45.3745    6.9378 O   0  0  0  0  0  0  0  0  0  0  0  0
   -2.8810  -45.1822    7.1989 C   0  0  3  0  0  0  0  0  0  0  0  0
   -5.6349  -44.5517    7.4221 C   0  0  0  0  0  0  0  0  0  0  0  0
   -4.8882  -44.0528    6.3462 C   0  0  0  0  0  0  0  0  0  0  0  0
   -3.5272  -44.3675    6.2431 C   0  0  0  0  0  0  0  0  0  0  0  0
    0.9807  -50.5349    6.6696 N   0  0  0  0  0  0  0  0  0  0  0  0
   -4.5301  -46.7432   10.1164 C   0  0  0  0  0  0  0  0  0  0  0  0
   -5.5194  -46.0063    9.4887 N   0  0  0  0  0  0  0  0  0  0  0  0
   -5.0107  -45.3807    8.3736 C   0  0  0  0  0  0  0  0  0  0  0  0
   -3.6231  -45.7297    8.3012 C   0  0  0  0  0  0  0  0  0  0  0  0
   -3.3547  -46.5895    9.4315 C   0  0  0  0  0  0  0  0  0  0  0  0
    4.4539  -48.1514    7.2515 H   0  0  0  0  0  0  0  0  0  0  0  0
    1.2777  -49.0901    7.6474 H   0  0  0  0  0  0  0  0  0  0  0  0
   -1.1203  -52.5160    6.4348 H   0  0  0  0  0  0  0  0  0  0  0  0
   -3.4285  -51.8632    5.7286 H   0  0  0  0  0  0  0  0  0  0  0  0
   -3.9277  -49.4886    5.1805 H   0  0  0  0  0  0  0  0  0  0  0  0
   -2.1565  -47.7664    5.3372 H   0  0  0  0  0  0  0  0  0  0  0  0
    1.8021  -46.7504    5.5246 H   0  0  0  0  0  0  0  0  0  0  0  0
    0.0352  -46.5536    5.2676 H   0  0  0  0  0  0  0  0  0  0  0  0
    1.3685  -46.5890    8.0232 H   0  0  0  0  0  0  0  0  0  0  0  0
    1.0304  -45.0895    7.0937 H   0  0  0  0  0  0  0  0  0  0  0  0
   -1.1027  -47.1125    7.9797 H   0  0  0  0  0  0  0  0  0  0  0  0
   -0.7210  -45.5778    8.8315 H   0  0  0  0  0  0  0  0  0  0  0  0
   -2.6400  -44.2924    7.7991 H   0  0  0  0  0  0  0  0  0  0  0  0
   -6.6811  -44.3022    7.5206 H   0  0  0  0  0  0  0  0  0  0  0  0
   -5.3594  -43.4293    5.6009 H   0  0  0  0  0  0  0  0  0  0  0  0
   -2.9579  -43.9776    5.4123 H   0  0  0  0  0  0  0  0  0  0  0  0
   -4.6640  -47.3433   11.0043 H   0  0  0  0  0  0  0  0  0  0  0  0
   -2.4025  -47.0296    9.6884 H   0  0  0  0  0  0  0  0  0  0  0  0
  1  2  2  0  0  0  0
  2  3  1  0  0  0  0
  2  4  1  0  0  0  0
  4 11  1  0  0  0  0
  4 20  1  0  0  0  0
  5  6  1  0  0  0  0
  5 10  1  0  0  0  0
  5 20  2  0  0  0  0
  6  7  2  0  0  0  0
  7  8  1  0  0  0  0
  8  9  2  0  0  0  0
  9 10  1  0  0  0  0
 10 11  2  0  0  0  0
 11 12  1  0  0  0  0
 12 13  1  0  0  0  0
 13 14  1  0  0  0  0
 14 15  1  0  0  0  0
 15 16  1  0  0  0  0
 16 19  1  0  0  0  0
 16 24  1  0  0  0  0
 17 18  1  0  0  0  0
 17 23  2  0  0  0  0
 18 19  2  0  0  0  0
 21 22  2  0  0  0  0
 21 25  1  0  0  0  0
 22 23  1  0  0  0  0
 23 24  1  0  0  0  0
 24 25  2  0  0  0  0
  3 26  1  0  0  0  0
  4 27  1  0  0  0  0
  6 28  1  0  0  0  0
  7 29  1  0  0  0  0
  8 30  1  0  0  0  0
  9 31  1  0  0  0  0
 12 32  1  0  0  0  0
 12 33  1  0  0  0  0
 13 34  1  0  0  0  0
 13 35  1  0  0  0  0
 14 36  1  0  0  0  0
 14 37  1  0  0  0  0
 16 38  1  0  0  0  0
 17 39  1  0  0  0  0
 18 40  1  0  0  0  0
 19 41  1  0  0  0  0
 21 42  1  0  0  0  0
 25 43  1  0  0  0  0
M  END
> <r_user_dG.exp>
-6.6626190630157

$$$$
48
  -OEChem-05162309453D
 Structure written by MMmdl.
 43 46  0     1  0  0  0  0  0999 V2000
    3.5962  -50.2382    7.2860 O   0  0  0  0  0  0  0  0  0  0  0  0
    2.9915  -49.1832    6.9785 C   0  0  0  0  0  0  0  0  0  0  0  0
    3.5468  -48.0563    6.9856 O   0  0  0  0  0  0  0  0  0  0  0  0
    1.5667  -49.2814    6.6034 C   0  0  3  0  0  0  0  0  0  0  0  0
   -0.3493  -50.4961    6.2933 C   0  0  0  0  0  0  0  0  0  0  0  0
   -1.3483  -51.4866    6.2008 C   0  0  0  0  0  0  0  0  0  0  0  0
   -2.6508  -51.1171    5.7985 C   0  0  0  0  0  0  0  0  0  0  0  0
   -2.9320  -49.7715    5.4886 C   0  0  0  0  0  0  0  0  0  0  0  0
   -1.9224  -48.7928    5.5781 C   0  0  0  0  0  0  0  0  0  0  0  0
   -0.6057  -49.1301    5.9783 C   0  0  0  0  0  0  0  0  0  0  0  0
    0.6128  -48.3833    6.1734 C   0  0  0  0  0  0  0  0  0  0  0  0
    0.8068  -46.9172    5.9622 C   0  0  0  0  0  0  0  0  0  0  0  0
    0.7034  -46.1229    7.2813 C   0  0  0  0  0  0  0  0  0  0  0  0
   -0.7224  -46.0877    7.8568 C   0  0  0  0  0  0  0  0  0  0  0  0
   -1.5391  -45.3745    6.9378 O   0  0  0  0  0  0  0  0  0  0  0  0
   -2.8810  -45.1822    7.1989 C   0  0  0  0  0  0  0  0  0  0  0  0
   -5.6349  -44.5517    7.4221 C   0  0  0  0  0  0  0  0  0  0  0  0
   -4.8882  -44.0528    6.3462 C   0  0  0  0  0  0  0  0  0  0  0  0
   -3.5272  -44.3675    6.2431 C   0  0  0  0  0  0  0  0  0  0  0  0
    0.9807  -50.5349    6.6696 N   0  0  0  0  0  0  0  0  0  0  0  0
   -4.5301  -46.7432   10.1164 C   0  0  0  0  0  0  0  0  0  0  0  0
   -5.5194  -46.0063    9.4887 N   0  0  0  0  0  0  0  0  0  0  0  0
   -5.0107  -45.3807    8.3736 C   0  0  0  0  0  0  0  0  0  0  0  0
   -3.6231  -45.7297    8.3012 C   0  0  0  0  0  0  0  0  0  0  0  0
   -3.3547  -46.5895    9.4315 C   0  0  0  0  0  0  0  0  0  0  0  0
    4.4539  -48.1514    7.2515 H   0  0  0  0  0  0  0  0  0  0  0  0
    1.2777  -49.0901    7.6474 H   0  0  0  0  0  0  0  0  0  0  0  0
   -1.1203  -52.5160    6.4348 H   0  0  0  0  0  0  0  0  0  0  0  0
   -3.4285  -51.8632    5.7286 H   0  0  0  0  0  0  0  0  0  0  0  0
   -3.9277  -49.4886    5.1805 H   0  0  0  0  0  0  0  0  0  0  0  0
   -2.1565  -47.7664    5.3372 H   0  0  0  0  0  0  0  0  0  0  0  0
    1.8021  -46.7504    5.5246 H   0  0  0  0  0  0  0  0  0  0  0  0
    0.0352  -46.5536    5.2676 H   0  0  0  0  0  0  0  0  0  0  0  0
    1.3685  -46.5890    8.0232 H   0  0  0  0  0  0  0  0  0  0  0  0
    1.0304  -45.0895    7.0937 H   0  0  0  0  0  0  0  0  0  0  0  0
   -1.1027  -47.1125    7.9797 H   0  0  0  0  0  0  0  0  0  0  0  0
   -0.7210  -45.5778    8.8315 H   0  0  0  0  0  0  0  0  0  0  0  0
   -6.6811  -44.3022    7.5206 H   0  0  0  0  0  0  0  0  0  0  0  0
   -5.3706  -44.4163    5.4269 H   0  0  0  0  0  0  0  0  0  0  0  0
   -4.9600  -42.9560    6.3889 H   0  0  0  0  0  0  0  0  0  0  0  0
   -2.9579  -43.9776    5.4123 H   0  0  0  0  0  0  0  0  0  0  0  0
   -4.6640  -47.3433   11.0043 H   0  0  0  0  0  0  0  0  0  0  0  0
   -2.4025  -47.0296    9.6884 H   0  0  0  0  0  0  0  0  0  0  0  0
  1  2  2  0  0  0  0
  2  3  1  0  0  0  0
  2  4  1  0  0  0  0
  4 11  1  0  0  0  0
  4 20  1  0  0  0  0
  5  6  1  0  0  0  0
  5 10  1  0  0  0  0
  5 20  2  0  0  0  0
  6  7  2  0  0  0  0
  7  8  1  0  0  0  0
  8  9  2  0  0  0  0
  9 10  1  0  0  0  0
 10 11  2  0  0  0  0
 11 12  1  0  0  0  0
 12 13  1  0  0  0  0
 13 14  1  0  0  0  0
 14 15  1  0  0  0  0
 15 16  1  0  0  0  0
 16 19  2  0  0  0  0
 16 24  1  0  0  0  0
 17 18  1  0  0  0  0
 17 23  2  0  0  0  0
 18 19  1  0  0  0  0
 21 22  2  0  0  0  0
 21 25  1  0  0  0  0
 22 23  1  0  0  0  0
 23 24  1  0  0  0  0
 24 25  2  0  0  0  0
  3 26  1  0  0  0  0
  4 27  1  0  0  0  0
  6 28  1  0  0  0  0
  7 29  1  0  0  0  0
  8 30  1  0  0  0  0
  9 31  1  0  0  0  0
 12 32  1  0  0  0  0
 12 33  1  0  0  0  0
 13 34  1  0  0  0  0
 13 35  1  0  0  0  0
 14 36  1  0  0  0  0
 14 37  1  0  0  0  0
 17 38  1  0  0  0  0
 18 39  1  0  0  0  0
 18 40  1  0  0  0  0
 19 41  1  0  0  0  0
 21 42  1  0  0  0  0
 25 43  1  0  0  0  0
M  END
> <r_user_dG.exp>
-6.6626190630157

$$$$
48
  -OEChem-05162309453D
 Structure written by MMmdl.
 43 46  0     1  0  0  0  0  0999 V2000
    3.5962  -50.2382    7.2860 O   0  0  0  0  0  0  0  0  0  0  0  0
    2.9915  -49.1832    6.9785 C   0  0  0  0  0  0  0  0  0  0  0  0
    3.5468  -48.0563    6.9856 O   0  0  0  0  0  0  0  0  0  0  0  0
    1.5667  -49.2814    6.6034 C   0  0  3  0  0  0  0  0  0  0  0  0
   -0.3493  -50.4961    6.2933 C   0  0  0  0  0  0  0  0  0  0  0  0
   -1.3483  -51.4866    6.2008 C   0  0  0  0  0  0  0  0  0  0  0  0
   -2.6508  -51.1171    5.7985 C   0  0  0  0  0  0  0  0  0  0  0  0
   -2.9320  -49.7715    5.4886 C   0  0  0  0  0  0  0  0  0  0  0  0
   -1.9224  -48.7928    5.5781 C   0  0  0  0  0  0  0  0  0  0  0  0
   -0.6057  -49.1301    5.9783 C   0  0  0  0  0  0  0  0  0  0  0  0
    0.6128  -48.3833    6.1734 C   0  0  0  0  0  0  0  0  0  0  0  0
    0.8068  -46.9172    5.9622 C   0  0  0  0  0  0  0  0  0  0  0  0
    0.7034  -46.1229    7.2813 C   0  0  0  0  0  0  0  0  0  0  0  0
   -0.7224  -46.0877    7.8568 C   0  0  0  0  0  0  0  0  0  0  0  0
   -1.5391  -45.3745    6.9378 O   0  0  0  0  0  0  0  0  0  0  0  0
   -2.8810  -45.1822    7.1989 C   0  0  0  0  0  0  0  0  0  0  0  0
   -5.6349  -44.5517    7.4221 C   0  0  0  0  0  0  0  0  0  0  0  0
   -4.8882  -44.0528    6.3462 C   0  0  0  0  0  0  0  0  0  0  0  0
   -3.5272  -44.3675    6.2431 C   0  0  0  0  0  0  0  0  0  0  0  0
    0.9807  -50.5349    6.6696 N   0  0  0  0  0  0  0  0  0  0  0  0
   -4.5301  -46.7432   10.1164 C   0  0  0  0  0  0  0  0  0  0  0  0
   -5.5194  -46.0063    9.4887 N   0  0  0  0  0  0  0  0  0  0  0  0
   -5.0107  -45.3807    8.3736 C   0  0  0  0  0  0  0  0  0  0  0  0
   -3.6231  -45.7297    8.3012 C   0  0  0  0  0  0  0  0  0  0  0  0
   -3.3547  -46.5895    9.4315 C   0  0  0  0  0  0  0  0  0  0  0  0
    4.4539  -48.1514    7.2515 H   0  0  0  0  0  0  0  0  0  0  0  0
    1.2777  -49.0901    7.6474 H   0  0  0  0  0  0  0  0  0  0  0  0
   -1.1203  -52.5160    6.4348 H   0  0  0  0  0  0  0  0  0  0  0  0
   -3.4285  -51.8632    5.7286 H   0  0  0  0  0  0  0  0  0  0  0  0
   -3.9277  -49.4886    5.1805 H   0  0  0  0  0  0  0  0  0  0  0  0
   -2.1565  -47.7664    5.3372 H   0  0  0  0  0  0  0  0  0  0  0  0
    1.8021  -46.7504    5.5246 H   0  0  0  0  0  0  0  0  0  0  0  0
    0.0352  -46.5536    5.2676 H   0  0  0  0  0  0  0  0  0  0  0  0
    1.3685  -46.5890    8.0232 H   0  0  0  0  0  0  0  0  0  0  0  0
    1.0304  -45.0895    7.0937 H   0  0  0  0  0  0  0  0  0  0  0  0
   -1.1027  -47.1125    7.9797 H   0  0  0  0  0  0  0  0  0  0  0  0
   -0.7210  -45.5778    8.8315 H   0  0  0  0  0  0  0  0  0  0  0  0
   -6.6811  -44.3022    7.5206 H   0  0  0  0  0  0  0  0  0  0  0  0
   -5.3594  -43.4293    5.6009 H   0  0  0  0  0  0  0  0  0  0  0  0
   -2.9873  -43.4091    6.2373 H   0  0  0  0  0  0  0  0  0  0  0  0
   -3.3976  -44.8673    5.2718 H   0  0  0  0  0  0  0  0  0  0  0  0
   -4.6640  -47.3433   11.0043 H   0  0  0  0  0  0  0  0  0  0  0  0
   -2.4025  -47.0296    9.6884 H   0  0  0  0  0  0  0  0  0  0  0  0
  1  2  2  0  0  0  0
  2  3  1  0  0  0  0
  2  4  1  0  0  0  0
  4 11  1  0  0  0  0
  4 20  1  0  0  0  0
  5  6  1  0  0  0  0
  5 10  1  0  0  0  0
  5 20  2  0  0  0  0
  6  7  2  0  0  0  0
  7  8  1  0  0  0  0
  8  9  2  0  0  0  0
  9 10  1  0  0  0  0
 10 11  2  0  0  0  0
 11 12  1  0  0  0  0
 12 13  1  0  0  0  0
 13 14  1  0  0  0  0
 14 15  1  0  0  0  0
 15 16  1  0  0  0  0
 16 19  1  0  0  0  0
 16 24  2  0  0  0  0
 17 18  2  0  0  0  0
 17 23  1  0  0  0  0
 18 19  1  0  0  0  0
 21 22  1  0  0  0  0
 21 25  2  0  0  0  0
 22 23  2  0  0  0  0
 23 24  1  0  0  0  0
 24 25  1  0  0  0  0
  3 26  1  0  0  0  0
  4 27  1  0  0  0  0
  6 28  1  0  0  0  0
  7 29  1  0  0  0  0
  8 30  1  0  0  0  0
  9 31  1  0  0  0  0
 12 32  1  0  0  0  0
 12 33  1  0  0  0  0
 13 34  1  0  0  0  0
 13 35  1  0  0  0  0
 14 36  1  0  0  0  0
 14 37  1  0  0  0  0
 17 38  1  0  0  0  0
 18 39  1  0  0  0  0
 19 40  1  0  0  0  0
 19 41  1  0  0  0  0
 21 42  1  0  0  0  0
 25 43  1  0  0  0  0
M  END
> <r_user_dG.exp>
-6.6626190630157

$$$$
48
  -OEChem-05162309453D
 Structure written by MMmdl.
 43 46  0     1  0  0  0  0  0999 V2000
    3.5962  -50.2382    7.2860 O   0  0  0  0  0  0  0  0  0  0  0  0
    2.9915  -49.1832    6.9785 C   0  0  0  0  0  0  0  0  0  0  0  0
    3.5468  -48.0563    6.9856 O   0  0  0  0  0  0  0  0  0  0  0  0
    1.5667  -49.2814    6.6034 C   0  0  3  0  0  0  0  0  0  0  0  0
   -0.3493  -50.4961    6.2933 C   0  0  0  0  0  0  0  0  0  0  0  0
   -1.3483  -51.4866    6.2008 C   0  0  0  0  0  0  0  0  0  0  0  0
   -2.6508  -51.1171    5.7985 C   0  0  0  0  0  0  0  0  0  0  0  0
   -2.9320  -49.7715    5.4886 C   0  0  0  0  0  0  0  0  0  0  0  0
   -1.9224  -48.7928    5.5781 C   0  0  0  0  0  0  0  0  0  0  0  0
   -0.6057  -49.1301    5.9783 C   0  0  0  0  0  0  0  0  0  0  0  0
    0.6128  -48.3833    6.1734 C   0  0  0  0  0  0  0  0  0  0  0  0
    0.8068  -46.9172    5.9622 C   0  0  0  0  0  0  0  0  0  0  0  0
    0.7034  -46.1229    7.2813 C   0  0  0  0  0  0  0  0  0  0  0  0
   -0.7224  -46.0877    7.8568 C   0  0  0  0  0  0  0  0  0  0  0  0
   -1.5391  -45.3745    6.9378 O   0  0  0  0  0  0  0  0  0  0  0  0
   -2.8810  -45.1822    7.1989 C   0  0  0  0  0  0  0  0  0  0  0  0
   -5.6349  -44.5517    7.4221 C   0  0  0  0  0  0  0  0  0  0  0  0
   -4.8882  -44.0528    6.3462 C   0  0  0  0  0  0  0  0  0  0  0  0
   -3.5272  -44.3675    6.2431 C   0  0  0  0  0  0  0  0  0  0  0  0
    0.9807  -50.5349    6.6696 N   0  0  0  0  0  0  0  0  0  0  0  0
   -4.5301  -46.7432   10.1164 C   0  0  0  0  0  0  0  0  0  0  0  0
   -5.5194  -46.0063    9.4887 N   0  0  0  0  0  0  0  0  0  0  0  0
   -5.0107  -45.3807    8.3736 C   0  0  0  0  0  0  0  0  0  0  0  0
   -3.6231  -45.7297    8.3012 C   0  0  0  0  0  0  0  0  0  0  0  0
   -3.3547  -46.5895    9.4315 C   0  0  0  0  0  0  0  0  0  0  0  0
    4.4539  -48.1514    7.2515 H   0  0  0  0  0  0  0  0  0  0  0  0
    1.2777  -49.0901    7.6474 H   0  0  0  0  0  0  0  0  0  0  0  0
   -1.1203  -52.5160    6.4348 H   0  0  0  0  0  0  0  0  0  0  0  0
   -3.4285  -51.8632    5.7286 H   0  0  0  0  0  0  0  0  0  0  0  0
   -3.9277  -49.4886    5.1805 H   0  0  0  0  0  0  0  0  0  0  0  0
   -2.1565  -47.7664    5.3372 H   0  0  0  0  0  0  0  0  0  0  0  0
    1.8021  -46.7504    5.5246 H   0  0  0  0  0  0  0  0  0  0  0  0
    0.0352  -46.5536    5.2676 H   0  0  0  0  0  0  0  0  0  0  0  0
    1.3685  -46.5890    8.0232 H   0  0  0  0  0  0  0  0  0  0  0  0
    1.0304  -45.0895    7.0937 H   0  0  0  0  0  0  0  0  0  0  0  0
   -1.1027  -47.1125    7.9797 H   0  0  0  0  0  0  0  0  0  0  0  0
   -0.7210  -45.5778    8.8315 H   0  0  0  0  0  0  0  0  0  0  0  0
   -6.0319  -43.6822    7.9666 H   0  0  0  0  0  0  0  0  0  0  0  0
   -6.4683  -45.1277    6.9935 H   0  0  0  0  0  0  0  0  0  0  0  0
   -5.3594  -43.4293    5.6009 H   0  0  0  0  0  0  0  0  0  0  0  0
   -2.9579  -43.9776    5.4123 H   0  0  0  0  0  0  0  0  0  0  0  0
   -4.6640  -47.3433   11.0043 H   0  0  0  0  0  0  0  0  0  0  0  0
   -2.4025  -47.0296    9.6884 H   0  0  0  0  0  0  0  0  0  0  0  0
  1  2  2  0  0  0  0
  2  3  1  0  0  0  0
  2  4  1  0  0  0  0
  4 11  1  0  0  0  0
  4 20  1  0  0  0  0
  5  6  1  0  0  0  0
  5 10  1  0  0  0  0
  5 20  2  0  0  0  0
  6  7  2  0  0  0  0
  7  8  1  0  0  0  0
  8  9  2  0  0  0  0
  9 10  1  0  0  0  0
 10 11  2  0  0  0  0
 11 12  1  0  0  0  0
 12 13  1  0  0  0  0
 13 14  1  0  0  0  0
 14 15  1  0  0  0  0
 15 16  1  0  0  0  0
 16 19  1  0  0  0  0
 16 24  2  0  0  0  0
 17 18  1  0  0  0  0
 17 23  1  0  0  0  0
 18 19  2  0  0  0  0
 21 22  1  0  0  0  0
 21 25  2  0  0  0  0
 22 23  2  0  0  0  0
 23 24  1  0  0  0  0
 24 25  1  0  0  0  0
  3 26  1  0  0  0  0
  4 27  1  0  0  0  0
  6 28  1  0  0  0  0
  7 29  1  0  0  0  0
  8 30  1  0  0  0  0
  9 31  1  0  0  0  0
 12 32  1  0  0  0  0
 12 33  1  0  0  0  0
 13 34  1  0  0  0  0
 13 35  1  0  0  0  0
 14 36  1  0  0  0  0
 14 37  1  0  0  0  0
 17 38  1  0  0  0  0
 17 39  1  0  0  0  0
 18 40  1  0  0  0  0
 19 41  1  0  0  0  0
 21 42  1  0  0  0  0
 25 43  1  0  0  0  0
M  END
> <r_user_dG.exp>
-6.6626190630157

$$$$
48
  -OEChem-05162309453D
 Structure written by MMmdl.
 43 46  0     0  0  0  0  0  0999 V2000
    3.5962  -50.2382    7.2860 O   0  0  0  0  0  0  0  0  0  0  0  0
    2.9915  -49.1832    6.9785 C   0  0  0  0  0  0  0  0  0  0  0  0
    3.5468  -48.0563    6.9856 O   0  0  0  0  0  0  0  0  0  0  0  0
    1.5667  -49.2814    6.6034 C   0  0  0  0  0  0  0  0  0  0  0  0
   -0.3493  -50.4961    6.2933 C   0  0  0  0  0  0  0  0  0  0  0  0
   -1.3483  -51.4866    6.2008 C   0  0  0  0  0  0  0  0  0  0  0  0
   -2.6508  -51.1171    5.7985 C   0  0  0  0  0  0  0  0  0  0  0  0
   -2.9320  -49.7715    5.4886 C   0  0  0  0  0  0  0  0  0  0  0  0
   -1.9224  -48.7928    5.5781 C   0  0  0  0  0  0  0  0  0  0  0  0
   -0.6057  -49.1301    5.9783 C   0  0  0  0  0  0  0  0  0  0  0  0
    0.6128  -48.3833    6.1734 C   0  0  0  0  0  0  0  0  0  0  0  0
    0.8068  -46.9172    5.9622 C   0  0  0  0  0  0  0  0  0  0  0  0
    0.7034  -46.1229    7.2813 C   0  0  0  0  0  0  0  0  0  0  0  0
   -0.7224  -46.0877    7.8568 C   0  0  0  0  0  0  0  0  0  0  0  0
   -1.5391  -45.3745    6.9378 O   0  0  0  0  0  0  0  0  0  0  0  0
   -2.8810  -45.1822    7.1989 C   0  0  0  0  0  0  0  0  0  0  0  0
   -5.6349  -44.5517    7.4221 C   0  0  0  0  0  0  0  0  0  0  0  0
   -4.8882  -44.0528    6.3462 C   0  0  0  0  0  0  0  0  0  0  0  0
   -3.5272  -44.3675    6.2431 C   0  0  0  0  0  0  0  0  0  0  0  0
    0.9807  -50.5349    6.6696 N   0  0  0  0  0  0  0  0  0  0  0  0
   -4.5301  -46.7432   10.1164 C   0  0  0  0  0  0  0  0  0  0  0  0
   -5.5194  -46.0063    9.4887 N   0  0  0  0  0  0  0  0  0  0  0  0
   -5.0107  -45.3807    8.3736 C   0  0  0  0  0  0  0  0  0  0  0  0
   -3.6231  -45.7297    8.3012 C   0  0  0  0  0  0  0  0  0  0  0  0
   -3.3547  -46.5895    9.4315 C   0  0  0  0  0  0  0  0  0  0  0  0
    4.4539  -48.1514    7.2515 H   0  0  0  0  0  0  0  0  0  0  0  0
   -1.1203  -52.5160    6.4348 H   0  0  0  0  0  0  0  0  0  0  0  0
   -3.4285  -51.8632    5.7286 H   0  0  0  0  0  0  0  0  0  0  0  0
   -3.2952  -49.7561    4.4504 H   0  0  0  0  0  0  0  0  0  0  0  0
   -3.7398  -49.4542    6.1645 H   0  0  0  0  0  0  0  0  0  0  0  0
   -2.1565  -47.7664    5.3372 H   0  0  0  0  0  0  0  0  0  0  0  0
    1.8021  -46.7504    5.5246 H   0  0  0  0  0  0  0  0  0  0  0  0
    0.0352  -46.5536    5.2676 H   0  0  0  0  0  0  0  0  0  0  0  0
    1.3685  -46.5890    8.0232 H   0  0  0  0  0  0  0  0  0  0  0  0
    1.0304  -45.0895    7.0937 H   0  0  0  0  0  0  0  0  0  0  0  0
   -1.1027  -47.1125    7.9797 H   0  0  0  0  0  0  0  0  0  0  0  0
   -0.7210  -45.5778    8.8315 H   0  0  0  0  0  0  0  0  0  0  0  0
   -6.6811  -44.3022    7.5206 H   0  0  0  0  0  0  0  0  0  0  0  0
   -5.3594  -43.4293    5.6009 H   0  0  0  0  0  0  0  0  0  0  0  0
   -2.9579  -43.9776    5.4123 H   0  0  0  0  0  0  0  0  0  0  0  0
   -4.4041  -46.3862   11.1492 H   0  0  0  0  0  0  0  0  0  0  0  0
   -4.8136  -47.8060   10.1278 H   0  0  0  0  0  0  0  0  0  0  0  0
   -2.4025  -47.0296    9.6884 H   0  0  0  0  0  0  0  0  0  0  0  0
  1  2  2  0  0  0  0
  2  3  1  0  0  0  0
  2  4  1  0  0  0  0
  4 11  2  0  0  0  0
  4 20  1  0  0  0  0
  5  6  1  0  0  0  0
  5 10  1  0  0  0  0
  5 20  2  0  0  0  0
  6  7  2  0  0  0  0
  7  8  1  0  0  0  0
  8  9  1  0  0  0  0
  9 10  2  0  0  0  0
 10 11  1  0  0  0  0
 11 12  1  0  0  0  0
 12 13  1  0  0  0  0
 13 14  1  0  0  0  0
 14 15  1  0  0  0  0
 15 16  1  0  0  0  0
 16 19  2  0  0  0  0
 16 24  1  0  0  0  0
 17 18  2  0  0  0  0
 17 23  1  0  0  0  0
 18 19  1  0  0  0  0
 21 22  1  0  0  0  0
 21 25  1  0  0  0  0
 22 23  2  0  0  0  0
 23 24  1  0  0  0  0
 24 25  2  0  0  0  0
  3 26  1  0  0  0  0
  6 27  1  0  0  0  0
  7 28  1  0  0  0  0
  8 29  1  0  0  0  0
  8 30  1  0  0  0  0
  9 31  1  0  0  0  0
 12 32  1  0  0  0  0
 12 33  1  0  0  0  0
 13 34  1  0  0  0  0
 13 35  1  0  0  0  0
 14 36  1  0  0  0  0
 14 37  1  0  0  0  0
 17 38  1  0  0  0  0
 18 39  1  0  0  0  0
 19 40  1  0  0  0  0
 21 41  1  0  0  0  0
 21 42  1  0  0  0  0
 25 43  1  0  0  0  0
M  END
> <r_user_dG.exp>
-6.6626190630157

$$$$
48
  -OEChem-05162309453D
 Structure written by MMmdl.
 43 46  0     0  0  0  0  0  0999 V2000
    3.5962  -50.2382    7.2860 O   0  0  0  0  0  0  0  0  0  0  0  0
    2.9915  -49.1832    6.9785 C   0  0  0  0  0  0  0  0  0  0  0  0
    3.5468  -48.0563    6.9856 O   0  0  0  0  0  0  0  0  0  0  0  0
    1.5667  -49.2814    6.6034 C   0  0  0  0  0  0  0  0  0  0  0  0
   -0.3493  -50.4961    6.2933 C   0  0  0  0  0  0  0  0  0  0  0  0
   -1.3483  -51.4866    6.2008 C   0  0  0  0  0  0  0  0  0  0  0  0
   -2.6508  -51.1171    5.7985 C   0  0  0  0  0  0  0  0  0  0  0  0
   -2.9320  -49.7715    5.4886 C   0  0  0  0  0  0  0  0  0  0  0  0
   -1.9224  -48.7928    5.5781 C   0  0  0  0  0  0  0  0  0  0  0  0
   -0.6057  -49.1301    5.9783 C   0  0  0  0  0  0  0  0  0  0  0  0
    0.6128  -48.3833    6.1734 C   0  0  0  0  0  0  0  0  0  0  0  0
    0.8068  -46.9172    5.9622 C   0  0  0  0  0  0  0  0  0  0  0  0
    0.7034  -46.1229    7.2813 C   0  0  0  0  0  0  0  0  0  0  0  0
   -0.7224  -46.0877    7.8568 C   0  0  0  0  0  0  0  0  0  0  0  0
   -1.5391  -45.3745    6.9378 O   0  0  0  0  0  0  0  0  0  0  0  0
   -2.8810  -45.1822    7.1989 C   0  0  0  0  0  0  0  0  0  0  0  0
   -5.6349  -44.5517    7.4221 C   0  0  0  0  0  0  0  0  0  0  0  0
   -4.8882  -44.0528    6.3462 C   0  0  0  0  0  0  0  0  0  0  0  0
   -3.5272  -44.3675    6.2431 C   0  0  0  0  0  0  0  0  0  0  0  0
    0.9807  -50.5349    6.6696 N   0  0  0  0  0  0  0  0  0  0  0  0
   -4.5301  -46.7432   10.1164 C   0  0  0  0  0  0  0  0  0  0  0  0
   -5.5194  -46.0063    9.4887 N   0  0  0  0  0  0  0  0  0  0  0  0
   -5.0107  -45.3807    8.3736 C   0  0  0  0  0  0  0  0  0  0  0  0
   -3.6231  -45.7297    8.3012 C   0  0  0  0  0  0  0  0  0  0  0  0
   -3.3547  -46.5895    9.4315 C   0  0  0  0  0  0  0  0  0  0  0  0
    4.4539  -48.1514    7.2515 H   0  0  0  0  0  0  0  0  0  0  0  0
   -1.1203  -52.5160    6.4348 H   0  0  0  0  0  0  0  0  0  0  0  0
   -2.8862  -51.7069    4.9003 H   0  0  0  0  0  0  0  0  0  0  0  0
   -3.3300  -51.4048    6.6145 H   0  0  0  0  0  0  0  0  0  0  0  0
   -3.9277  -49.4886    5.1805 H   0  0  0  0  0  0  0  0  0  0  0  0
   -2.1565  -47.7664    5.3372 H   0  0  0  0  0  0  0  0  0  0  0  0
    1.8021  -46.7504    5.5246 H   0  0  0  0  0  0  0  0  0  0  0  0
    0.0352  -46.5536    5.2676 H   0  0  0  0  0  0  0  0  0  0  0  0
    1.3685  -46.5890    8.0232 H   0  0  0  0  0  0  0  0  0  0  0  0
    1.0304  -45.0895    7.0937 H   0  0  0  0  0  0  0  0  0  0  0  0
   -1.1027  -47.1125    7.9797 H   0  0  0  0  0  0  0  0  0  0  0  0
   -0.7210  -45.5778    8.8315 H   0  0  0  0  0  0  0  0  0  0  0  0
   -6.6811  -44.3022    7.5206 H   0  0  0  0  0  0  0  0  0  0  0  0
   -5.3594  -43.4293    5.6009 H   0  0  0  0  0  0  0  0  0  0  0  0
   -2.9579  -43.9776    5.4123 H   0  0  0  0  0  0  0  0  0  0  0  0
   -4.4041  -46.3862   11.1492 H   0  0  0  0  0  0  0  0  0  0  0  0
   -4.8136  -47.8060   10.1278 H   0  0  0  0  0  0  0  0  0  0  0  0
   -2.4025  -47.0296    9.6884 H   0  0  0  0  0  0  0  0  0  0  0  0
  1  2  2  0  0  0  0
  2  3  1  0  0  0  0
  2  4  1  0  0  0  0
  4 11  1  0  0  0  0
  4 20  2  0  0  0  0
  5  6  2  0  0  0  0
  5 10  1  0  0  0  0
  5 20  1  0  0  0  0
  6  7  1  0  0  0  0
  7  8  1  0  0  0  0
  8  9  2  0  0  0  0
  9 10  1  0  0  0  0
 10 11  2  0  0  0  0
 11 12  1  0  0  0  0
 12 13  1  0  0  0  0
 13 14  1  0  0  0  0
 14 15  1  0  0  0  0
 15 16  1  0  0  0  0
 16 19  2  0  0  0  0
 16 24  1  0  0  0  0
 17 18  2  0  0  0  0
 17 23  1  0  0  0  0
 18 19  1  0  0  0  0
 21 22  1  0  0  0  0
 21 25  1  0  0  0  0
 22 23  2  0  0  0  0
 23 24  1  0  0  0  0
 24 25  2  0  0  0  0
  3 26  1  0  0  0  0
  6 27  1  0  0  0  0
  7 28  1  0  0  0  0
  7 29  1  0  0  0  0
  8 30  1  0  0  0  0
  9 31  1  0  0  0  0
 12 32  1  0  0  0  0
 12 33  1  0  0  0  0
 13 34  1  0  0  0  0
 13 35  1  0  0  0  0
 14 36  1  0  0  0  0
 14 37  1  0  0  0  0
 17 38  1  0  0  0  0
 18 39  1  0  0  0  0
 19 40  1  0  0  0  0
 21 41  1  0  0  0  0
 21 42  1  0  0  0  0
 25 43  1  0  0  0  0
M  END
> <r_user_dG.exp>
-6.6626190630157

$$$$
48
  -OEChem-05162309453D
 Structure written by MMmdl.
 43 46  0     0  0  0  0  0  0999 V2000
    3.5962  -50.2382    7.2860 O   0  0  0  0  0  0  0  0  0  0  0  0
    2.9915  -49.1832    6.9785 C   0  0  0  0  0  0  0  0  0  0  0  0
    3.5468  -48.0563    6.9856 O   0  0  0  0  0  0  0  0  0  0  0  0
    1.5667  -49.2814    6.6034 C   0  0  0  0  0  0  0  0  0  0  0  0
   -0.3493  -50.4961    6.2933 C   0  0  0  0  0  0  0  0  0  0  0  0
   -1.3483  -51.4866    6.2008 C   0  0  0  0  0  0  0  0  0  0  0  0
   -2.6508  -51.1171    5.7985 C   0  0  0  0  0  0  0  0  0  0  0  0
   -2.9320  -49.7715    5.4886 C   0  0  0  0  0  0  0  0  0  0  0  0
   -1.9224  -48.7928    5.5781 C   0  0  0  0  0  0  0  0  0  0  0  0
   -0.6057  -49.1301    5.9783 C   0  0  0  0  0  0  0  0  0  0  0  0
    0.6128  -48.3833    6.1734 C   0  0  0  0  0  0  0  0  0  0  0  0
    0.8068  -46.9172    5.9622 C   0  0  0  0  0  0  0  0  0  0  0  0
    0.7034  -46.1229    7.2813 C   0  0  0  0  0  0  0  0  0  0  0  0
   -0.7224  -46.0877    7.8568 C   0  0  0  0  0  0  0  0  0  0  0  0
   -1.5391  -45.3745    6.9378 O   0  0  0  0  0  0  0  0  0  0  0  0
   -2.8810  -45.1822    7.1989 C   0  0  0  0  0  0  0  0  0  0  0  0
   -5.6349  -44.5517    7.4221 C   0  0  0  0  0  0  0  0  0  0  0  0
   -4.8882  -44.0528    6.3462 C   0  0  0  0  0  0  0  0  0  0  0  0
   -3.5272  -44.3675    6.2431 C   0  0  0  0  0  0  0  0  0  0  0  0
    0.9807  -50.5349    6.6696 N   0  0  0  0  0  0  0  0  0  0  0  0
   -4.5301  -46.7432   10.1164 C   0  0  0  0  0  0  0  0  0  0  0  0
   -5.5194  -46.0063    9.4887 N   0  0  0  0  0  0  0  0  0  0  0  0
   -5.0107  -45.3807    8.3736 C   0  0  0  0  0  0  0  0  0  0  0  0
   -3.6231  -45.7297    8.3012 C   0  0  0  0  0  0  0  0  0  0  0  0
   -3.3547  -46.5895    9.4315 C   0  0  0  0  0  0  0  0  0  0  0  0
    4.4539  -48.1514    7.2515 H   0  0  0  0  0  0  0  0  0  0  0  0
   -0.9906  -52.2374    5.4808 H   0  0  0  0  0  0  0  0  0  0  0  0
   -1.4378  -51.9465    7.1960 H   0  0  0  0  0  0  0  0  0  0  0  0
   -3.4285  -51.8632    5.7286 H   0  0  0  0  0  0  0  0  0  0  0  0
   -3.9277  -49.4886    5.1805 H   0  0  0  0  0  0  0  0  0  0  0  0
   -2.1565  -47.7664    5.3372 H   0  0  0  0  0  0  0  0  0  0  0  0
    1.8021  -46.7504    5.5246 H   0  0  0  0  0  0  0  0  0  0  0  0
    0.0352  -46.5536    5.2676 H   0  0  0  0  0  0  0  0  0  0  0  0
    1.3685  -46.5890    8.0232 H   0  0  0  0  0  0  0  0  0  0  0  0
    1.0304  -45.0895    7.0937 H   0  0  0  0  0  0  0  0  0  0  0  0
   -1.1027  -47.1125    7.9797 H   0  0  0  0  0  0  0  0  0  0  0  0
   -0.7210  -45.5778    8.8315 H   0  0  0  0  0  0  0  0  0  0  0  0
   -6.6811  -44.3022    7.5206 H   0  0  0  0  0  0  0  0  0  0  0  0
   -5.3594  -43.4293    5.6009 H   0  0  0  0  0  0  0  0  0  0  0  0
   -2.9579  -43.9776    5.4123 H   0  0  0  0  0  0  0  0  0  0  0  0
   -4.4041  -46.3862   11.1492 H   0  0  0  0  0  0  0  0  0  0  0  0
   -4.8136  -47.8060   10.1278 H   0  0  0  0  0  0  0  0  0  0  0  0
   -2.4025  -47.0296    9.6884 H   0  0  0  0  0  0  0  0  0  0  0  0
  1  2  2  0  0  0  0
  2  3  1  0  0  0  0
  2  4  1  0  0  0  0
  4 11  2  0  0  0  0
  4 20  1  0  0  0  0
  5  6  1  0  0  0  0
  5 10  1  0  0  0  0
  5 20  2  0  0  0  0
  6  7  1  0  0  0  0
  7  8  2  0  0  0  0
  8  9  1  0  0  0  0
  9 10  2  0  0  0  0
 10 11  1  0  0  0  0
 11 12  1  0  0  0  0
 12 13  1  0  0  0  0
 13 14  1  0  0  0  0
 14 15  1  0  0  0  0
 15 16  1  0  0  0  0
 16 19  2  0  0  0  0
 16 24  1  0  0  0  0
 17 18  2  0  0  0  0
 17 23  1  0  0  0  0
 18 19  1  0  0  0  0
 21 22  1  0  0  0  0
 21 25  1  0  0  0  0
 22 23  2  0  0  0  0
 23 24  1  0  0  0  0
 24 25  2  0  0  0  0
  3 26  1  0  0  0  0
  6 27  1  0  0  0  0
  6 28  1  0  0  0  0
  7 29  1  0  0  0  0
  8 30  1  0  0  0  0
  9 31  1  0  0  0  0
 12 32  1  0  0  0  0
 12 33  1  0  0  0  0
 13 34  1  0  0  0  0
 13 35  1  0  0  0  0
 14 36  1  0  0  0  0
 14 37  1  0  0  0  0
 17 38  1  0  0  0  0
 18 39  1  0  0  0  0
 19 40  1  0  0  0  0
 21 41  1  0  0  0  0
 21 42  1  0  0  0  0
 25 43  1  0  0  0  0
M  END
> <r_user_dG.exp>
-6.6626190630157

$$$$
48
  -OEChem-05162309453D
 Structure written by MMmdl.
 43 46  0     0  0  0  0  0  0999 V2000
    3.5962  -50.2382    7.2860 O   0  0  0  0  0  0  0  0  0  0  0  0
    2.9915  -49.1832    6.9785 C   0  0  0  0  0  0  0  0  0  0  0  0
    3.5468  -48.0563    6.9856 O   0  0  0  0  0  0  0  0  0  0  0  0
    1.5667  -49.2814    6.6034 C   0  0  0  0  0  0  0  0  0  0  0  0
   -0.3493  -50.4961    6.2933 C   0  0  0  0  0  0  0  0  0  0  0  0
   -1.3483  -51.4866    6.2008 C   0  0  0  0  0  0  0  0  0  0  0  0
   -2.6508  -51.1171    5.7985 C   0  0  0  0  0  0  0  0  0  0  0  0
   -2.9320  -49.7715    5.4886 C   0  0  0  0  0  0  0  0  0  0  0  0
   -1.9224  -48.7928    5.5781 C   0  0  0  0  0  0  0  0  0  0  0  0
   -0.6057  -49.1301    5.9783 C   0  0  0  0  0  0  0  0  0  0  0  0
    0.6128  -48.3833    6.1734 C   0  0  0  0  0  0  0  0  0  0  0  0
    0.8068  -46.9172    5.9622 C   0  0  0  0  0  0  0  0  0  0  0  0
    0.7034  -46.1229    7.2813 C   0  0  0  0  0  0  0  0  0  0  0  0
   -0.7224  -46.0877    7.8568 C   0  0  0  0  0  0  0  0  0  0  0  0
   -1.5391  -45.3745    6.9378 O   0  0  0  0  0  0  0  0  0  0  0  0
   -2.8810  -45.1822    7.1989 C   0  0  0  0  0  0  0  0  0  0  0  0
   -5.6349  -44.5517    7.4221 C   0  0  0  0  0  0  0  0  0  0  0  0
   -4.8882  -44.0528    6.3462 C   0  0  0  0  0  0  0  0  0  0  0  0
   -3.5272  -44.3675    6.2431 C   0  0  0  0  0  0  0  0  0  0  0  0
    0.9807  -50.5349    6.6696 N   0  0  0  0  0  0  0  0  0  0  0  0
   -4.5301  -46.7432   10.1164 C   0  0  0  0  0  0  0  0  0  0  0  0
   -5.5194  -46.0063    9.4887 N   0  0  0  0  0  0  0  0  0  0  0  0
   -5.0107  -45.3807    8.3736 C   0  0  0  0  0  0  0  0  0  0  0  0
   -3.6231  -45.7297    8.3012 C   0  0  0  0  0  0  0  0  0  0  0  0
   -3.3547  -46.5895    9.4315 C   0  0  0  0  0  0  0  0  0  0  0  0
    4.4539  -48.1514    7.2515 H   0  0  0  0  0  0  0  0  0  0  0  0
   -1.1203  -52.5160    6.4348 H   0  0  0  0  0  0  0  0  0  0  0  0
   -3.4285  -51.8632    5.7286 H   0  0  0  0  0  0  0  0  0  0  0  0
   -3.9277  -49.4886    5.1805 H   0  0  0  0  0  0  0  0  0  0  0  0
   -1.8381  -48.3398    4.5793 H   0  0  0  0  0  0  0  0  0  0  0  0
   -2.2820  -48.0386    6.2936 H   0  0  0  0  0  0  0  0  0  0  0  0
    1.8021  -46.7504    5.5246 H   0  0  0  0  0  0  0  0  0  0  0  0
    0.0352  -46.5536    5.2676 H   0  0  0  0  0  0  0  0  0  0  0  0
    1.3685  -46.5890    8.0232 H   0  0  0  0  0  0  0  0  0  0  0  0
    1.0304  -45.0895    7.0937 H   0  0  0  0  0  0  0  0  0  0  0  0
   -1.1027  -47.1125    7.9797 H   0  0  0  0  0  0  0  0  0  0  0  0
   -0.7210  -45.5778    8.8315 H   0  0  0  0  0  0  0  0  0  0  0  0
   -6.6811  -44.3022    7.5206 H   0  0  0  0  0  0  0  0  0  0  0  0
   -5.3594  -43.4293    5.6009 H   0  0  0  0  0  0  0  0  0  0  0  0
   -2.9579  -43.9776    5.4123 H   0  0  0  0  0  0  0  0  0  0  0  0
   -4.4041  -46.3862   11.1492 H   0  0  0  0  0  0  0  0  0  0  0  0
   -4.8136  -47.8060   10.1278 H   0  0  0  0  0  0  0  0  0  0  0  0
   -2.4025  -47.0296    9.6884 H   0  0  0  0  0  0  0  0  0  0  0  0
  1  2  2  0  0  0  0
  2  3  1  0  0  0  0
  2  4  1  0  0  0  0
  4 11  1  0  0  0  0
  4 20  2  0  0  0  0
  5  6  2  0  0  0  0
  5 10  1  0  0  0  0
  5 20  1  0  0  0  0
  6  7  1  0  0  0  0
  7  8  2  0  0  0  0
  8  9  1  0  0  0  0
  9 10  1  0  0  0  0
 10 11  2  0  0  0  0
 11 12  1  0  0  0  0
 12 13  1  0  0  0  0
 13 14  1  0  0  0  0
 14 15  1  0  0  0  0
 15 16  1  0  0  0  0
 16 19  2  0  0  0  0
 16 24  1  0  0  0  0
 17 18  2  0  0  0  0
 17 23  1  0  0  0  0
 18 19  1  0  0  0  0
 21 22  1  0  0  0  0
 21 25  1  0  0  0  0
 22 23  2  0  0  0  0
 23 24  1  0  0  0  0
 24 25  2  0  0  0  0
  3 26  1  0  0  0  0
  6 27  1  0  0  0  0
  7 28  1  0  0  0  0
  8 29  1  0  0  0  0
  9 30  1  0  0  0  0
  9 31  1  0  0  0  0
 12 32  1  0  0  0  0
 12 33  1  0  0  0  0
 13 34  1  0  0  0  0
 13 35  1  0  0  0  0
 14 36  1  0  0  0  0
 14 37  1  0  0  0  0
 17 38  1  0  0  0  0
 18 39  1  0  0  0  0
 19 40  1  0  0  0  0
 21 41  1  0  0  0  0
 21 42  1  0  0  0  0
 25 43  1  0  0  0  0
M  END
> <r_user_dG.exp>
-6.6626190630157

$$$$
48
  -OEChem-05162309453D
 Structure written by MMmdl.
 43 46  0     1  0  0  0  0  0999 V2000
    3.5962  -50.2382    7.2860 O   0  0  0  0  0  0  0  0  0  0  0  0
    2.9915  -49.1832    6.9785 C   0  0  0  0  0  0  0  0  0  0  0  0
    3.5468  -48.0563    6.9856 O   0  0  0  0  0  0  0  0  0  0  0  0
    1.5667  -49.2814    6.6034 C   0  0  0  0  0  0  0  0  0  0  0  0
   -0.3493  -50.4961    6.2933 C   0  0  0  0  0  0  0  0  0  0  0  0
   -1.3483  -51.4866    6.2008 C   0  0  0  0  0  0  0  0  0  0  0  0
   -2.6508  -51.1171    5.7985 C   0  0  0  0  0  0  0  0  0  0  0  0
   -2.9320  -49.7715    5.4886 C   0  0  0  0  0  0  0  0  0  0  0  0
   -1.9224  -48.7928    5.5781 C   0  0  0  0  0  0  0  0  0  0  0  0
   -0.6057  -49.1301    5.9783 C   0  0  3  0  0  0  0  0  0  0  0  0
    0.6128  -48.3833    6.1734 C   0  0  0  0  0  0  0  0  0  0  0  0
    0.8068  -46.9172    5.9622 C   0  0  0  0  0  0  0  0  0  0  0  0
    0.7034  -46.1229    7.2813 C   0  0  0  0  0  0  0  0  0  0  0  0
   -0.7224  -46.0877    7.8568 C   0  0  0  0  0  0  0  0  0  0  0  0
   -1.5391  -45.3745    6.9378 O   0  0  0  0  0  0  0  0  0  0  0  0
   -2.8810  -45.1822    7.1989 C   0  0  0  0  0  0  0  0  0  0  0  0
   -5.6349  -44.5517    7.4221 C   0  0  0  0  0  0  0  0  0  0  0  0
   -4.8882  -44.0528    6.3462 C   0  0  0  0  0  0  0  0  0  0  0  0
   -3.5272  -44.3675    6.2431 C   0  0  0  0  0  0  0  0  0  0  0  0
    0.9807  -50.5349    6.6696 N   0  0  0  0  0  0  0  0  0  0  0  0
   -4.5301  -46.7432   10.1164 C   0  0  0  0  0  0  0  0  0  0  0  0
   -5.5194  -46.0063    9.4887 N   0  0  0  0  0  0  0  0  0  0  0  0
   -5.0107  -45.3807    8.3736 C   0  0  0  0  0  0  0  0  0  0  0  0
   -3.6231  -45.7297    8.3012 C   0  0  3  0  0  0  0  0  0  0  0  0
   -3.3547  -46.5895    9.4315 C   0  0  0  0  0  0  0  0  0  0  0  0
    4.4539  -48.1514    7.2515 H   0  0  0  0  0  0  0  0  0  0  0  0
   -1.1203  -52.5160    6.4348 H   0  0  0  0  0  0  0  0  0  0  0  0
   -3.4285  -51.8632    5.7286 H   0  0  0  0  0  0  0  0  0  0  0  0
   -3.9277  -49.4886    5.1805 H   0  0  0  0  0  0  0  0  0  0  0  0
   -2.1565  -47.7664    5.3372 H   0  0  0  0  0  0  0  0  0  0  0  0
   -0.3296  -49.3153    4.9298 H   0  0  0  0  0  0  0  0  0  0  0  0
    1.8021  -46.7504    5.5246 H   0  0  0  0  0  0  0  0  0  0  0  0
    0.0352  -46.5536    5.2676 H   0  0  0  0  0  0  0  0  0  0  0  0
    1.3685  -46.5890    8.0232 H   0  0  0  0  0  0  0  0  0  0  0  0
    1.0304  -45.0895    7.0937 H   0  0  0  0  0  0  0  0  0  0  0  0
   -1.1027  -47.1125    7.9797 H   0  0  0  0  0  0  0  0  0  0  0  0
   -0.7210  -45.5778    8.8315 H   0  0  0  0  0  0  0  0  0  0  0  0
   -6.6811  -44.3022    7.5206 H   0  0  0  0  0  0  0  0  0  0  0  0
   -5.3594  -43.4293    5.6009 H   0  0  0  0  0  0  0  0  0  0  0  0
   -2.9579  -43.9776    5.4123 H   0  0  0  0  0  0  0  0  0  0  0  0
   -4.6640  -47.3433   11.0043 H   0  0  0  0  0  0  0  0  0  0  0  0
   -3.3694  -44.8493    8.9100 H   0  0  0  0  0  0  0  0  0  0  0  0
   -2.4025  -47.0296    9.6884 H   0  0  0  0  0  0  0  0  0  0  0  0
  1  2  2  0  0  0  0
  2  3  1  0  0  0  0
  2  4  1  0  0  0  0
  4 11  2  0  0  0  0
  4 20  1  0  0  0  0
  5  6  1  0  0  0  0
  5 10  1  0  0  0  0
  5 20  2  0  0  0  0
  6  7  2  0  0  0  0
  7  8  1  0  0  0  0
  8  9  2  0  0  0  0
  9 10  1  0  0  0  0
 10 11  1  0  0  0  0
 11 12  1  0  0  0  0
 12 13  1  0  0  0  0
 13 14  1  0  0  0  0
 14 15  1  0  0  0  0
 15 16  1  0  0  0  0
 16 19  2  0  0  0  0
 16 24  1  0  0  0  0
 17 18  2  0  0  0  0
 17 23  1  0  0  0  0
 18 19  1  0  0  0  0
 21 22  1  0  0  0  0
 21 25  2  0  0  0  0
 22 23  2  0  0  0  0
 23 24  1  0  0  0  0
 24 25  1  0  0  0  0
  3 26  1  0  0  0  0
  6 27  1  0  0  0  0
  7 28  1  0  0  0  0
  8 29  1  0  0  0  0
  9 30  1  0  0  0  0
 10 31  1  0  0  0  0
 12 32  1  0  0  0  0
 12 33  1  0  0  0  0
 13 34  1  0  0  0  0
 13 35  1  0  0  0  0
 14 36  1  0  0  0  0
 14 37  1  0  0  0  0
 17 38  1  0  0  0  0
 18 39  1  0  0  0  0
 19 40  1  0  0  0  0
 21 41  1  0  0  0  0
 24 42  1  0  0  0  0
 25 43  1  0  0  0  0
M  END
> <r_user_dG.exp>
-6.6626190630157

$$$$
48
  -OEChem-05162309453D
 Structure written by MMmdl.
 43 46  0     1  0  0  0  0  0999 V2000
    3.5962  -50.2382    7.2860 O   0  0  0  0  0  0  0  0  0  0  0  0
    2.9915  -49.1832    6.9785 C   0  0  0  0  0  0  0  0  0  0  0  0
    3.5468  -48.0563    6.9856 O   0  0  0  0  0  0  0  0  0  0  0  0
    1.5667  -49.2814    6.6034 C   0  0  0  0  0  0  0  0  0  0  0  0
   -0.3493  -50.4961    6.2933 C   0  0  0  0  0  0  0  0  0  0  0  0
   -1.3483  -51.4866    6.2008 C   0  0  0  0  0  0  0  0  0  0  0  0
   -2.6508  -51.1171    5.7985 C   0  0  0  0  0  0  0  0  0  0  0  0
   -2.9320  -49.7715    5.4886 C   0  0  0  0  0  0  0  0  0  0  0  0
   -1.9224  -48.7928    5.5781 C   0  0  0  0  0  0  0  0  0  0  0  0
   -0.6057  -49.1301    5.9783 C   0  0  3  0  0  0  0  0  0  0  0  0
    0.6128  -48.3833    6.1734 C   0  0  0  0  0  0  0  0  0  0  0  0
    0.8068  -46.9172    5.9622 C   0  0  0  0  0  0  0  0  0  0  0  0
    0.7034  -46.1229    7.2813 C   0  0  0  0  0  0  0  0  0  0  0  0
   -0.7224  -46.0877    7.8568 C   0  0  0  0  0  0  0  0  0  0  0  0
   -1.5391  -45.3745    6.9378 O   0  0  0  0  0  0  0  0  0  0  0  0
   -2.8810  -45.1822    7.1989 C   0  0  0  0  0  0  0  0  0  0  0  0
   -5.6349  -44.5517    7.4221 C   0  0  0  0  0  0  0  0  0  0  0  0
   -4.8882  -44.0528    6.3462 C   0  0  0  0  0  0  0  0  0  0  0  0
   -3.5272  -44.3675    6.2431 C   0  0  0  0  0  0  0  0  0  0  0  0
    0.9807  -50.5349    6.6696 N   0  0  0  0  0  0  0  0  0  0  0  0
   -4.5301  -46.7432   10.1164 C   0  0  0  0  0  0  0  0  0  0  0  0
   -5.5194  -46.0063    9.4887 N   0  0  0  0  0  0  0  0  0  0  0  0
   -5.0107  -45.3807    8.3736 C   0  0  3  0  0  0  0  0  0  0  0  0
   -3.6231  -45.7297    8.3012 C   0  0  0  0  0  0  0  0  0  0  0  0
   -3.3547  -46.5895    9.4315 C   0  0  0  0  0  0  0  0  0  0  0  0
    4.4539  -48.1514    7.2515 H   0  0  0  0  0  0  0  0  0  0  0  0
   -1.1203  -52.5160    6.4348 H   0  0  0  0  0  0  0  0  0  0  0  0
   -3.4285  -51.8632    5.7286 H   0  0  0  0  0  0  0  0  0  0  0  0
   -3.9277  -49.4886    5.1805 H   0  0  0  0  0  0  0  0  0  0  0  0
   -2.1565  -47.7664    5.3372 H   0  0  0  0  0  0  0  0  0  0  0  0
   -0.3296  -49.3153    4.9298 H   0  0  0  0  0  0  0  0  0  0  0  0
    1.8021  -46.7504    5.5246 H   0  0  0  0  0  0  0  0  0  0  0  0
    0.0352  -46.5536    5.2676 H   0  0  0  0  0  0  0  0  0  0  0  0
    1.3685  -46.5890    8.0232 H   0  0  0  0  0  0  0  0  0  0  0  0
    1.0304  -45.0895    7.0937 H   0  0  0  0  0  0  0  0  0  0  0  0
   -1.1027  -47.1125    7.9797 H   0  0  0  0  0  0  0  0  0  0  0  0
   -0.7210  -45.5778    8.8315 H   0  0  0  0  0  0  0  0  0  0  0  0
   -6.6811  -44.3022    7.5206 H   0  0  0  0  0  0  0  0  0  0  0  0
   -5.3594  -43.4293    5.6009 H   0  0  0  0  0  0  0  0  0  0  0  0
   -2.9579  -43.9776    5.4123 H   0  0  0  0  0  0  0  0  0  0  0  0
   -4.6640  -47.3433   11.0043 H   0  0  0  0  0  0  0  0  0  0  0  0
   -4.7593  -44.4984    8.9806 H   0  0  0  0  0  0  0  0  0  0  0  0
   -2.4025  -47.0296    9.6884 H   0  0  0  0  0  0  0  0  0  0  0  0
  1  2  2  0  0  0  0
  2  3  1  0  0  0  0
  2  4  1  0  0  0  0
  4 11  2  0  0  0  0
  4 20  1  0  0  0  0
  5  6  1  0  0  0  0
  5 10  1  0  0  0  0
  5 20  2  0  0  0  0
  6  7  2  0  0  0  0
  7  8  1  0  0  0  0
  8  9  2  0  0  0  0
  9 10  1  0  0  0  0
 10 11  1  0  0  0  0
 11 12  1  0  0  0  0
 12 13  1  0  0  0  0
 13 14  1  0  0  0  0
 14 15  1  0  0  0  0
 15 16  1  0  0  0  0
 16 19  2  0  0  0  0
 16 24  1  0  0  0  0
 17 18  2  0  0  0  0
 17 23  1  0  0  0  0
 18 19  1  0  0  0  0
 21 22  2  0  0  0  0
 21 25  1  0  0  0  0
 22 23  1  0  0  0  0
 23 24  1  0  0  0  0
 24 25  2  0  0  0  0
  3 26  1  0  0  0  0
  6 27  1  0  0  0  0
  7 28  1  0  0  0  0
  8 29  1  0  0  0  0
  9 30  1  0  0  0  0
 10 31  1  0  0  0  0
 12 32  1  0  0  0  0
 12 33  1  0  0  0  0
 13 34  1  0  0  0  0
 13 35  1  0  0  0  0
 14 36  1  0  0  0  0
 14 37  1  0  0  0  0
 17 38  1  0  0  0  0
 18 39  1  0  0  0  0
 19 40  1  0  0  0  0
 21 41  1  0  0  0  0
 23 42  1  0  0  0  0
 25 43  1  0  0  0  0
M  END
> <r_user_dG.exp>
-6.6626190630157

$$$$
48
  -OEChem-05162309453D
 Structure written by MMmdl.
 43 46  0     1  0  0  0  0  0999 V2000
    3.5962  -50.2382    7.2860 O   0  0  0  0  0  0  0  0  0  0  0  0
    2.9915  -49.1832    6.9785 C   0  0  0  0  0  0  0  0  0  0  0  0
    3.5468  -48.0563    6.9856 O   0  0  0  0  0  0  0  0  0  0  0  0
    1.5667  -49.2814    6.6034 C   0  0  0  0  0  0  0  0  0  0  0  0
   -0.3493  -50.4961    6.2933 C   0  0  0  0  0  0  0  0  0  0  0  0
   -1.3483  -51.4866    6.2008 C   0  0  0  0  0  0  0  0  0  0  0  0
   -2.6508  -51.1171    5.7985 C   0  0  0  0  0  0  0  0  0  0  0  0
   -2.9320  -49.7715    5.4886 C   0  0  0  0  0  0  0  0  0  0  0  0
   -1.9224  -48.7928    5.5781 C   0  0  0  0  0  0  0  0  0  0  0  0
   -0.6057  -49.1301    5.9783 C   0  0  3  0  0  0  0  0  0  0  0  0
    0.6128  -48.3833    6.1734 C   0  0  0  0  0  0  0  0  0  0  0  0
    0.8068  -46.9172    5.9622 C   0  0  0  0  0  0  0  0  0  0  0  0
    0.7034  -46.1229    7.2813 C   0  0  0  0  0  0  0  0  0  0  0  0
   -0.7224  -46.0877    7.8568 C   0  0  0  0  0  0  0  0  0  0  0  0
   -1.5391  -45.3745    6.9378 O   0  0  0  0  0  0  0  0  0  0  0  0
   -2.8810  -45.1822    7.1989 C   0  0  3  0  0  0  0  0  0  0  0  0
   -5.6349  -44.5517    7.4221 C   0  0  0  0  0  0  0  0  0  0  0  0
   -4.8882  -44.0528    6.3462 C   0  0  0  0  0  0  0  0  0  0  0  0
   -3.5272  -44.3675    6.2431 C   0  0  0  0  0  0  0  0  0  0  0  0
    0.9807  -50.5349    6.6696 N   0  0  0  0  0  0  0  0  0  0  0  0
   -4.5301  -46.7432   10.1164 C   0  0  0  0  0  0  0  0  0  0  0  0
   -5.5194  -46.0063    9.4887 N   0  0  0  0  0  0  0  0  0  0  0  0
   -5.0107  -45.3807    8.3736 C   0  0  0  0  0  0  0  0  0  0  0  0
   -3.6231  -45.7297    8.3012 C   0  0  0  0  0  0  0  0  0  0  0  0
   -3.3547  -46.5895    9.4315 C   0  0  0  0  0  0  0  0  0  0  0  0
    4.4539  -48.1514    7.2515 H   0  0  0  0  0  0  0  0  0  0  0  0
   -1.1203  -52.5160    6.4348 H   0  0  0  0  0  0  0  0  0  0  0  0
   -3.4285  -51.8632    5.7286 H   0  0  0  0  0  0  0  0  0  0  0  0
   -3.9277  -49.4886    5.1805 H   0  0  0  0  0  0  0  0  0  0  0  0
   -2.1565  -47.7664    5.3372 H   0  0  0  0  0  0  0  0  0  0  0  0
   -0.3296  -49.3153    4.9298 H   0  0  0  0  0  0  0  0  0  0  0  0
    1.8021  -46.7504    5.5246 H   0  0  0  0  0  0  0  0  0  0  0  0
    0.0352  -46.5536    5.2676 H   0  0  0  0  0  0  0  0  0  0  0  0
    1.3685  -46.5890    8.0232 H   0  0  0  0  0  0  0  0  0  0  0  0
    1.0304  -45.0895    7.0937 H   0  0  0  0  0  0  0  0  0  0  0  0
   -1.1027  -47.1125    7.9797 H   0  0  0  0  0  0  0  0  0  0  0  0
   -0.7210  -45.5778    8.8315 H   0  0  0  0  0  0  0  0  0  0  0  0
   -2.6400  -44.2924    7.7991 H   0  0  0  0  0  0  0  0  0  0  0  0
   -6.6811  -44.3022    7.5206 H   0  0  0  0  0  0  0  0  0  0  0  0
   -5.3594  -43.4293    5.6009 H   0  0  0  0  0  0  0  0  0  0  0  0
   -2.9579  -43.9776    5.4123 H   0  0  0  0  0  0  0  0  0  0  0  0
   -4.6640  -47.3433   11.0043 H   0  0  0  0  0  0  0  0  0  0  0  0
   -2.4025  -47.0296    9.6884 H   0  0  0  0  0  0  0  0  0  0  0  0
  1  2  2  0  0  0  0
  2  3  1  0  0  0  0
  2  4  1  0  0  0  0
  4 11  2  0  0  0  0
  4 20  1  0  0  0  0
  5  6  1  0  0  0  0
  5 10  1  0  0  0  0
  5 20  2  0  0  0  0
  6  7  2  0  0  0  0
  7  8  1  0  0  0  0
  8  9  2  0  0  0  0
  9 10  1  0  0  0  0
 10 11  1  0  0  0  0
 11 12  1  0  0  0  0
 12 13  1  0  0  0  0
 13 14  1  0  0  0  0
 14 15  1  0  0  0  0
 15 16  1  0  0  0  0
 16 19  1  0  0  0  0
 16 24  1  0  0  0  0
 17 18  1  0  0  0  0
 17 23  2  0  0  0  0
 18 19  2  0  0  0  0
 21 22  2  0  0  0  0
 21 25  1  0  0  0  0
 22 23  1  0  0  0  0
 23 24  1  0  0  0  0
 24 25  2  0  0  0  0
  3 26  1  0  0  0  0
  6 27  1  0  0  0  0
  7 28  1  0  0  0  0
  8 29  1  0  0  0  0
  9 30  1  0  0  0  0
 10 31  1  0  0  0  0
 12 32  1  0  0  0  0
 12 33  1  0  0  0  0
 13 34  1  0  0  0  0
 13 35  1  0  0  0  0
 14 36  1  0  0  0  0
 14 37  1  0  0  0  0
 16 38  1  0  0  0  0
 17 39  1  0  0  0  0
 18 40  1  0  0  0  0
 19 41  1  0  0  0  0
 21 42  1  0  0  0  0
 25 43  1  0  0  0  0
M  END
> <r_user_dG.exp>
-6.6626190630157

$$$$
48
  -OEChem-05162309453D
 Structure written by MMmdl.
 43 46  0     1  0  0  0  0  0999 V2000
    3.5962  -50.2382    7.2860 O   0  0  0  0  0  0  0  0  0  0  0  0
    2.9915  -49.1832    6.9785 C   0  0  0  0  0  0  0  0  0  0  0  0
    3.5468  -48.0563    6.9856 O   0  0  0  0  0  0  0  0  0  0  0  0
    1.5667  -49.2814    6.6034 C   0  0  0  0  0  0  0  0  0  0  0  0
   -0.3493  -50.4961    6.2933 C   0  0  0  0  0  0  0  0  0  0  0  0
   -1.3483  -51.4866    6.2008 C   0  0  0  0  0  0  0  0  0  0  0  0
   -2.6508  -51.1171    5.7985 C   0  0  0  0  0  0  0  0  0  0  0  0
   -2.9320  -49.7715    5.4886 C   0  0  0  0  0  0  0  0  0  0  0  0
   -1.9224  -48.7928    5.5781 C   0  0  0  0  0  0  0  0  0  0  0  0
   -0.6057  -49.1301    5.9783 C   0  0  3  0  0  0  0  0  0  0  0  0
    0.6128  -48.3833    6.1734 C   0  0  0  0  0  0  0  0  0  0  0  0
    0.8068  -46.9172    5.9622 C   0  0  0  0  0  0  0  0  0  0  0  0
    0.7034  -46.1229    7.2813 C   0  0  0  0  0  0  0  0  0  0  0  0
   -0.7224  -46.0877    7.8568 C   0  0  0  0  0  0  0  0  0  0  0  0
   -1.5391  -45.3745    6.9378 O   0  0  0  0  0  0  0  0  0  0  0  0
   -2.8810  -45.1822    7.1989 C   0  0  0  0  0  0  0  0  0  0  0  0
   -5.6349  -44.5517    7.4221 C   0  0  0  0  0  0  0  0  0  0  0  0
   -4.8882  -44.0528    6.3462 C   0  0  0  0  0  0  0  0  0  0  0  0
   -3.5272  -44.3675    6.2431 C   0  0  0  0  0  0  0  0  0  0  0  0
    0.9807  -50.5349    6.6696 N   0  0  0  0  0  0  0  0  0  0  0  0
   -4.5301  -46.7432   10.1164 C   0  0  0  0  0  0  0  0  0  0  0  0
   -5.5194  -46.0063    9.4887 N   0  0  0  0  0  0  0  0  0  0  0  0
   -5.0107  -45.3807    8.3736 C   0  0  0  0  0  0  0  0  0  0  0  0
   -3.6231  -45.7297    8.3012 C   0  0  0  0  0  0  0  0  0  0  0  0
   -3.3547  -46.5895    9.4315 C   0  0  0  0  0  0  0  0  0  0  0  0
    4.4539  -48.1514    7.2515 H   0  0  0  0  0  0  0  0  0  0  0  0
   -1.1203  -52.5160    6.4348 H   0  0  0  0  0  0  0  0  0  0  0  0
   -3.4285  -51.8632    5.7286 H   0  0  0  0  0  0  0  0  0  0  0  0
   -3.9277  -49.4886    5.1805 H   0  0  0  0  0  0  0  0  0  0  0  0
   -2.1565  -47.7664    5.3372 H   0  0  0  0  0  0  0  0  0  0  0  0
   -0.3296  -49.3153    4.9298 H   0  0  0  0  0  0  0  0  0  0  0  0
    1.8021  -46.7504    5.5246 H   0  0  0  0  0  0  0  0  0  0  0  0
    0.0352  -46.5536    5.2676 H   0  0  0  0  0  0  0  0  0  0  0  0
    1.3685  -46.5890    8.0232 H   0  0  0  0  0  0  0  0  0  0  0  0
    1.0304  -45.0895    7.0937 H   0  0  0  0  0  0  0  0  0  0  0  0
   -1.1027  -47.1125    7.9797 H   0  0  0  0  0  0  0  0  0  0  0  0
   -0.7210  -45.5778    8.8315 H   0  0  0  0  0  0  0  0  0  0  0  0
   -6.6811  -44.3022    7.5206 H   0  0  0  0  0  0  0  0  0  0  0  0
   -5.3706  -44.4163    5.4269 H   0  0  0  0  0  0  0  0  0  0  0  0
   -4.9600  -42.9560    6.3889 H   0  0  0  0  0  0  0  0  0  0  0  0
   -2.9579  -43.9776    5.4123 H   0  0  0  0  0  0  0  0  0  0  0  0
   -4.6640  -47.3433   11.0043 H   0  0  0  0  0  0  0  0  0  0  0  0
   -2.4025  -47.0296    9.6884 H   0  0  0  0  0  0  0  0  0  0  0  0
  1  2  2  0  0  0  0
  2  3  1  0  0  0  0
  2  4  1  0  0  0  0
  4 11  2  0  0  0  0
  4 20  1  0  0  0  0
  5  6  1  0  0  0  0
  5 10  1  0  0  0  0
  5 20  2  0  0  0  0
  6  7  2  0  0  0  0
  7  8  1  0  0  0  0
  8  9  2  0  0  0  0
  9 10  1  0  0  0  0
 10 11  1  0  0  0  0
 11 12  1  0  0  0  0
 12 13  1  0  0  0  0
 13 14  1  0  0  0  0
 14 15  1  0  0  0  0
 15 16  1  0  0  0  0
 16 19  2  0  0  0  0
 16 24  1  0  0  0  0
 17 18  1  0  0  0  0
 17 23  2  0  0  0  0
 18 19  1  0  0  0  0
 21 22  2  0  0  0  0
 21 25  1  0  0  0  0
 22 23  1  0  0  0  0
 23 24  1  0  0  0  0
 24 25  2  0  0  0  0
  3 26  1  0  0  0  0
  6 27  1  0  0  0  0
  7 28  1  0  0  0  0
  8 29  1  0  0  0  0
  9 30  1  0  0  0  0
 10 31  1  0  0  0  0
 12 32  1  0  0  0  0
 12 33  1  0  0  0  0
 13 34  1  0  0  0  0
 13 35  1  0  0  0  0
 14 36  1  0  0  0  0
 14 37  1  0  0  0  0
 17 38  1  0  0  0  0
 18 39  1  0  0  0  0
 18 40  1  0  0  0  0
 19 41  1  0  0  0  0
 21 42  1  0  0  0  0
 25 43  1  0  0  0  0
M  END
> <r_user_dG.exp>
-6.6626190630157

$$$$
48
  -OEChem-05162309453D
 Structure written by MMmdl.
 43 46  0     1  0  0  0  0  0999 V2000
    3.5962  -50.2382    7.2860 O   0  0  0  0  0  0  0  0  0  0  0  0
    2.9915  -49.1832    6.9785 C   0  0  0  0  0  0  0  0  0  0  0  0
    3.5468  -48.0563    6.9856 O   0  0  0  0  0  0  0  0  0  0  0  0
    1.5667  -49.2814    6.6034 C   0  0  0  0  0  0  0  0  0  0  0  0
   -0.3493  -50.4961    6.2933 C   0  0  0  0  0  0  0  0  0  0  0  0
   -1.3483  -51.4866    6.2008 C   0  0  0  0  0  0  0  0  0  0  0  0
   -2.6508  -51.1171    5.7985 C   0  0  0  0  0  0  0  0  0  0  0  0
   -2.9320  -49.7715    5.4886 C   0  0  0  0  0  0  0  0  0  0  0  0
   -1.9224  -48.7928    5.5781 C   0  0  0  0  0  0  0  0  0  0  0  0
   -0.6057  -49.1301    5.9783 C   0  0  3  0  0  0  0  0  0  0  0  0
    0.6128  -48.3833    6.1734 C   0  0  0  0  0  0  0  0  0  0  0  0
    0.8068  -46.9172    5.9622 C   0  0  0  0  0  0  0  0  0  0  0  0
    0.7034  -46.1229    7.2813 C   0  0  0  0  0  0  0  0  0  0  0  0
   -0.7224  -46.0877    7.8568 C   0  0  0  0  0  0  0  0  0  0  0  0
   -1.5391  -45.3745    6.9378 O   0  0  0  0  0  0  0  0  0  0  0  0
   -2.8810  -45.1822    7.1989 C   0  0  0  0  0  0  0  0  0  0  0  0
   -5.6349  -44.5517    7.4221 C   0  0  0  0  0  0  0  0  0  0  0  0
   -4.8882  -44.0528    6.3462 C   0  0  0  0  0  0  0  0  0  0  0  0
   -3.5272  -44.3675    6.2431 C   0  0  0  0  0  0  0  0  0  0  0  0
    0.9807  -50.5349    6.6696 N   0  0  0  0  0  0  0  0  0  0  0  0
   -4.5301  -46.7432   10.1164 C   0  0  0  0  0  0  0  0  0  0  0  0
   -5.5194  -46.0063    9.4887 N   0  0  0  0  0  0  0  0  0  0  0  0
   -5.0107  -45.3807    8.3736 C   0  0  0  0  0  0  0  0  0  0  0  0
   -3.6231  -45.7297    8.3012 C   0  0  0  0  0  0  0  0  0  0  0  0
   -3.3547  -46.5895    9.4315 C   0  0  0  0  0  0  0  0  0  0  0  0
    4.4539  -48.1514    7.2515 H   0  0  0  0  0  0  0  0  0  0  0  0
   -1.1203  -52.5160    6.4348 H   0  0  0  0  0  0  0  0  0  0  0  0
   -3.4285  -51.8632    5.7286 H   0  0  0  0  0  0  0  0  0  0  0  0
   -3.9277  -49.4886    5.1805 H   0  0  0  0  0  0  0  0  0  0  0  0
   -2.1565  -47.7664    5.3372 H   0  0  0  0  0  0  0  0  0  0  0  0
   -0.3296  -49.3153    4.9298 H   0  0  0  0  0  0  0  0  0  0  0  0
    1.8021  -46.7504    5.5246 H   0  0  0  0  0  0  0  0  0  0  0  0
    0.0352  -46.5536    5.2676 H   0  0  0  0  0  0  0  0  0  0  0  0
    1.3685  -46.5890    8.0232 H   0  0  0  0  0  0  0  0  0  0  0  0
    1.0304  -45.0895    7.0937 H   0  0  0  0  0  0  0  0  0  0  0  0
   -1.1027  -47.1125    7.9797 H   0  0  0  0  0  0  0  0  0  0  0  0
   -0.7210  -45.5778    8.8315 H   0  0  0  0  0  0  0  0  0  0  0  0
   -6.6811  -44.3022    7.5206 H   0  0  0  0  0  0  0  0  0  0  0  0
   -5.3594  -43.4293    5.6009 H   0  0  0  0  0  0  0  0  0  0  0  0
   -2.9873  -43.4091    6.2373 H   0  0  0  0  0  0  0  0  0  0  0  0
   -3.3976  -44.8673    5.2718 H   0  0  0  0  0  0  0  0  0  0  0  0
   -4.6640  -47.3433   11.0043 H   0  0  0  0  0  0  0  0  0  0  0  0
   -2.4025  -47.0296    9.6884 H   0  0  0  0  0  0  0  0  0  0  0  0
  1  2  2  0  0  0  0
  2  3  1  0  0  0  0
  2  4  1  0  0  0  0
  4 11  2  0  0  0  0
  4 20  1  0  0  0  0
  5  6  1  0  0  0  0
  5 10  1  0  0  0  0
  5 20  2  0  0  0  0
  6  7  2  0  0  0  0
  7  8  1  0  0  0  0
  8  9  2  0  0  0  0
  9 10  1  0  0  0  0
 10 11  1  0  0  0  0
 11 12  1  0  0  0  0
 12 13  1  0  0  0  0
 13 14  1  0  0  0  0
 14 15  1  0  0  0  0
 15 16  1  0  0  0  0
 16 19  1  0  0  0  0
 16 24  2  0  0  0  0
 17 18  2  0  0  0  0
 17 23  1  0  0  0  0
 18 19  1  0  0  0  0
 21 22  1  0  0  0  0
 21 25  2  0  0  0  0
 22 23  2  0  0  0  0
 23 24  1  0  0  0  0
 24 25  1  0  0  0  0
  3 26  1  0  0  0  0
  6 27  1  0  0  0  0
  7 28  1  0  0  0  0
  8 29  1  0  0  0  0
  9 30  1  0  0  0  0
 10 31  1  0  0  0  0
 12 32  1  0  0  0  0
 12 33  1  0  0  0  0
 13 34  1  0  0  0  0
 13 35  1  0  0  0  0
 14 36  1  0  0  0  0
 14 37  1  0  0  0  0
 17 38  1  0  0  0  0
 18 39  1  0  0  0  0
 19 40  1  0  0  0  0
 19 41  1  0  0  0  0
 21 42  1  0  0  0  0
 25 43  1  0  0  0  0
M  END
> <r_user_dG.exp>
-6.6626190630157

$$$$
48
  -OEChem-05162309453D
 Structure written by MMmdl.
 43 46  0     1  0  0  0  0  0999 V2000
    3.5962  -50.2382    7.2860 O   0  0  0  0  0  0  0  0  0  0  0  0
    2.9915  -49.1832    6.9785 C   0  0  0  0  0  0  0  0  0  0  0  0
    3.5468  -48.0563    6.9856 O   0  0  0  0  0  0  0  0  0  0  0  0
    1.5667  -49.2814    6.6034 C   0  0  0  0  0  0  0  0  0  0  0  0
   -0.3493  -50.4961    6.2933 C   0  0  0  0  0  0  0  0  0  0  0  0
   -1.3483  -51.4866    6.2008 C   0  0  0  0  0  0  0  0  0  0  0  0
   -2.6508  -51.1171    5.7985 C   0  0  0  0  0  0  0  0  0  0  0  0
   -2.9320  -49.7715    5.4886 C   0  0  0  0  0  0  0  0  0  0  0  0
   -1.9224  -48.7928    5.5781 C   0  0  0  0  0  0  0  0  0  0  0  0
   -0.6057  -49.1301    5.9783 C   0  0  3  0  0  0  0  0  0  0  0  0
    0.6128  -48.3833    6.1734 C   0  0  0  0  0  0  0  0  0  0  0  0
    0.8068  -46.9172    5.9622 C   0  0  0  0  0  0  0  0  0  0  0  0
    0.7034  -46.1229    7.2813 C   0  0  0  0  0  0  0  0  0  0  0  0
   -0.7224  -46.0877    7.8568 C   0  0  0  0  0  0  0  0  0  0  0  0
   -1.5391  -45.3745    6.9378 O   0  0  0  0  0  0  0  0  0  0  0  0
   -2.8810  -45.1822    7.1989 C   0  0  0  0  0  0  0  0  0  0  0  0
   -5.6349  -44.5517    7.4221 C   0  0  0  0  0  0  0  0  0  0  0  0
   -4.8882  -44.0528    6.3462 C   0  0  0  0  0  0  0  0  0  0  0  0
   -3.5272  -44.3675    6.2431 C   0  0  0  0  0  0  0  0  0  0  0  0
    0.9807  -50.5349    6.6696 N   0  0  0  0  0  0  0  0  0  0  0  0
   -4.5301  -46.7432   10.1164 C   0  0  0  0  0  0  0  0  0  0  0  0
   -5.5194  -46.0063    9.4887 N   0  0  0  0  0  0  0  0  0  0  0  0
   -5.0107  -45.3807    8.3736 C   0  0  0  0  0  0  0  0  0  0  0  0
   -3.6231  -45.7297    8.3012 C   0  0  0  0  0  0  0  0  0  0  0  0
   -3.3547  -46.5895    9.4315 C   0  0  0  0  0  0  0  0  0  0  0  0
    4.4539  -48.1514    7.2515 H   0  0  0  0  0  0  0  0  0  0  0  0
   -1.1203  -52.5160    6.4348 H   0  0  0  0  0  0  0  0  0  0  0  0
   -3.4285  -51.8632    5.7286 H   0  0  0  0  0  0  0  0  0  0  0  0
   -3.9277  -49.4886    5.1805 H   0  0  0  0  0  0  0  0  0  0  0  0
   -2.1565  -47.7664    5.3372 H   0  0  0  0  0  0  0  0  0  0  0  0
   -0.3296  -49.3153    4.9298 H   0  0  0  0  0  0  0  0  0  0  0  0
    1.8021  -46.7504    5.5246 H   0  0  0  0  0  0  0  0  0  0  0  0
    0.0352  -46.5536    5.2676 H   0  0  0  0  0  0  0  0  0  0  0  0
    1.3685  -46.5890    8.0232 H   0  0  0  0  0  0  0  0  0  0  0  0
    1.0304  -45.0895    7.0937 H   0  0  0  0  0  0  0  0  0  0  0  0
   -1.1027  -47.1125    7.9797 H   0  0  0  0  0  0  0  0  0  0  0  0
   -0.7210  -45.5778    8.8315 H   0  0  0  0  0  0  0  0  0  0  0  0
   -6.0319  -43.6822    7.9666 H   0  0  0  0  0  0  0  0  0  0  0  0
   -6.4683  -45.1277    6.9935 H   0  0  0  0  0  0  0  0  0  0  0  0
   -5.3594  -43.4293    5.6009 H   0  0  0  0  0  0  0  0  0  0  0  0
   -2.9579  -43.9776    5.4123 H   0  0  0  0  0  0  0  0  0  0  0  0
   -4.6640  -47.3433   11.0043 H   0  0  0  0  0  0  0  0  0  0  0  0
   -2.4025  -47.0296    9.6884 H   0  0  0  0  0  0  0  0  0  0  0  0
  1  2  2  0  0  0  0
  2  3  1  0  0  0  0
  2  4  1  0  0  0  0
  4 11  2  0  0  0  0
  4 20  1  0  0  0  0
  5  6  1  0  0  0  0
  5 10  1  0  0  0  0
  5 20  2  0  0  0  0
  6  7  2  0  0  0  0
  7  8  1  0  0  0  0
  8  9  2  0  0  0  0
  9 10  1  0  0  0  0
 10 11  1  0  0  0  0
 11 12  1  0  0  0  0
 12 13  1  0  0  0  0
 13 14  1  0  0  0  0
 14 15  1  0  0  0  0
 15 16  1  0  0  0  0
 16 19  1  0  0  0  0
 16 24  2  0  0  0  0
 17 18  1  0  0  0  0
 17 23  1  0  0  0  0
 18 19  2  0  0  0  0
 21 22  1  0  0  0  0
 21 25  2  0  0  0  0
 22 23  2  0  0  0  0
 23 24  1  0  0  0  0
 24 25  1  0  0  0  0
  3 26  1  0  0  0  0
  6 27  1  0  0  0  0
  7 28  1  0  0  0  0
  8 29  1  0  0  0  0
  9 30  1  0  0  0  0
 10 31  1  0  0  0  0
 12 32  1  0  0  0  0
 12 33  1  0  0  0  0
 13 34  1  0  0  0  0
 13 35  1  0  0  0  0
 14 36  1  0  0  0  0
 14 37  1  0  0  0  0
 17 38  1  0  0  0  0
 17 39  1  0  0  0  0
 18 40  1  0  0  0  0
 19 41  1  0  0  0  0
 21 42  1  0  0  0  0
 25 43  1  0  0  0  0
M  END
> <r_user_dG.exp>
-6.6626190630157

$$$$
48
  -OEChem-05162309453D
 Structure written by MMmdl.
 43 46  0     1  0  0  0  0  0999 V2000
    3.5962  -50.2382    7.2860 O   0  0  0  0  0  0  0  0  0  0  0  0
    2.9915  -49.1832    6.9785 C   0  0  0  0  0  0  0  0  0  0  0  0
    3.5468  -48.0563    6.9856 O   0  0  0  0  0  0  0  0  0  0  0  0
    1.5667  -49.2814    6.6034 C   0  0  0  0  0  0  0  0  0  0  0  0
   -0.3493  -50.4961    6.2933 C   0  0  3  0  0  0  0  0  0  0  0  0
   -1.3483  -51.4866    6.2008 C   0  0  0  0  0  0  0  0  0  0  0  0
   -2.6508  -51.1171    5.7985 C   0  0  0  0  0  0  0  0  0  0  0  0
   -2.9320  -49.7715    5.4886 C   0  0  0  0  0  0  0  0  0  0  0  0
   -1.9224  -48.7928    5.5781 C   0  0  0  0  0  0  0  0  0  0  0  0
   -0.6057  -49.1301    5.9783 C   0  0  0  0  0  0  0  0  0  0  0  0
    0.6128  -48.3833    6.1734 C   0  0  0  0  0  0  0  0  0  0  0  0
    0.8068  -46.9172    5.9622 C   0  0  0  0  0  0  0  0  0  0  0  0
    0.7034  -46.1229    7.2813 C   0  0  0  0  0  0  0  0  0  0  0  0
   -0.7224  -46.0877    7.8568 C   0  0  0  0  0  0  0  0  0  0  0  0
   -1.5391  -45.3745    6.9378 O   0  0  0  0  0  0  0  0  0  0  0  0
   -2.8810  -45.1822    7.1989 C   0  0  0  0  0  0  0  0  0  0  0  0
   -5.6349  -44.5517    7.4221 C   0  0  0  0  0  0  0  0  0  0  0  0
   -4.8882  -44.0528    6.3462 C   0  0  0  0  0  0  0  0  0  0  0  0
   -3.5272  -44.3675    6.2431 C   0  0  0  0  0  0  0  0  0  0  0  0
    0.9807  -50.5349    6.6696 N   0  0  0  0  0  0  0  0  0  0  0  0
   -4.5301  -46.7432   10.1164 C   0  0  0  0  0  0  0  0  0  0  0  0
   -5.5194  -46.0063    9.4887 N   0  0  0  0  0  0  0  0  0  0  0  0
   -5.0107  -45.3807    8.3736 C   0  0  0  0  0  0  0  0  0  0  0  0
   -3.6231  -45.7297    8.3012 C   0  0  3  0  0  0  0  0  0  0  0  0
   -3.3547  -46.5895    9.4315 C   0  0  0  0  0  0  0  0  0  0  0  0
    4.4539  -48.1514    7.2515 H   0  0  0  0  0  0  0  0  0  0  0  0
   -0.0617  -50.6854    5.2486 H   0  0  0  0  0  0  0  0  0  0  0  0
   -1.1203  -52.5160    6.4348 H   0  0  0  0  0  0  0  0  0  0  0  0
   -3.4285  -51.8632    5.7286 H   0  0  0  0  0  0  0  0  0  0  0  0
   -3.9277  -49.4886    5.1805 H   0  0  0  0  0  0  0  0  0  0  0  0
   -2.1565  -47.7664    5.3372 H   0  0  0  0  0  0  0  0  0  0  0  0
    1.8021  -46.7504    5.5246 H   0  0  0  0  0  0  0  0  0  0  0  0
    0.0352  -46.5536    5.2676 H   0  0  0  0  0  0  0  0  0  0  0  0
    1.3685  -46.5890    8.0232 H   0  0  0  0  0  0  0  0  0  0  0  0
    1.0304  -45.0895    7.0937 H   0  0  0  0  0  0  0  0  0  0  0  0
   -1.1027  -47.1125    7.9797 H   0  0  0  0  0  0  0  0  0  0  0  0
   -0.7210  -45.5778    8.8315 H   0  0  0  0  0  0  0  0  0  0  0  0
   -6.6811  -44.3022    7.5206 H   0  0  0  0  0  0  0  0  0  0  0  0
   -5.3594  -43.4293    5.6009 H   0  0  0  0  0  0  0  0  0  0  0  0
   -2.9579  -43.9776    5.4123 H   0  0  0  0  0  0  0  0  0  0  0  0
   -4.6640  -47.3433   11.0043 H   0  0  0  0  0  0  0  0  0  0  0  0
   -3.3694  -44.8493    8.9100 H   0  0  0  0  0  0  0  0  0  0  0  0
   -2.4025  -47.0296    9.6884 H   0  0  0  0  0  0  0  0  0  0  0  0
  1  2  2  0  0  0  0
  2  3  1  0  0  0  0
  2  4  1  0  0  0  0
  4 11  1  0  0  0  0
  4 20  2  0  0  0  0
  5  6  1  0  0  0  0
  5 10  1  0  0  0  0
  5 20  1  0  0  0  0
  6  7  2  0  0  0  0
  7  8  1  0  0  0  0
  8  9  2  0  0  0  0
  9 10  1  0  0  0  0
 10 11  2  0  0  0  0
 11 12  1  0  0  0  0
 12 13  1  0  0  0  0
 13 14  1  0  0  0  0
 14 15  1  0  0  0  0
 15 16  1  0  0  0  0
 16 19  2  0  0  0  0
 16 24  1  0  0  0  0
 17 18  2  0  0  0  0
 17 23  1  0  0  0  0
 18 19  1  0  0  0  0
 21 22  1  0  0  0  0
 21 25  2  0  0  0  0
 22 23  2  0  0  0  0
 23 24  1  0  0  0  0
 24 25  1  0  0  0  0
  3 26  1  0  0  0  0
  5 27  1  0  0  0  0
  6 28  1  0  0  0  0
  7 29  1  0  0  0  0
  8 30  1  0  0  0  0
  9 31  1  0  0  0  0
 12 32  1  0  0  0  0
 12 33  1  0  0  0  0
 13 34  1  0  0  0  0
 13 35  1  0  0  0  0
 14 36  1  0  0  0  0
 14 37  1  0  0  0  0
 17 38  1  0  0  0  0
 18 39  1  0  0  0  0
 19 40  1  0  0  0  0
 21 41  1  0  0  0  0
 24 42  1  0  0  0  0
 25 43  1  0  0  0  0
M  END
> <r_user_dG.exp>
-6.6626190630157

$$$$
48
  -OEChem-05162309453D
 Structure written by MMmdl.
 43 46  0     1  0  0  0  0  0999 V2000
    3.5962  -50.2382    7.2860 O   0  0  0  0  0  0  0  0  0  0  0  0
    2.9915  -49.1832    6.9785 C   0  0  0  0  0  0  0  0  0  0  0  0
    3.5468  -48.0563    6.9856 O   0  0  0  0  0  0  0  0  0  0  0  0
    1.5667  -49.2814    6.6034 C   0  0  0  0  0  0  0  0  0  0  0  0
   -0.3493  -50.4961    6.2933 C   0  0  3  0  0  0  0  0  0  0  0  0
   -1.3483  -51.4866    6.2008 C   0  0  0  0  0  0  0  0  0  0  0  0
   -2.6508  -51.1171    5.7985 C   0  0  0  0  0  0  0  0  0  0  0  0
   -2.9320  -49.7715    5.4886 C   0  0  0  0  0  0  0  0  0  0  0  0
   -1.9224  -48.7928    5.5781 C   0  0  0  0  0  0  0  0  0  0  0  0
   -0.6057  -49.1301    5.9783 C   0  0  0  0  0  0  0  0  0  0  0  0
    0.6128  -48.3833    6.1734 C   0  0  0  0  0  0  0  0  0  0  0  0
    0.8068  -46.9172    5.9622 C   0  0  0  0  0  0  0  0  0  0  0  0
    0.7034  -46.1229    7.2813 C   0  0  0  0  0  0  0  0  0  0  0  0
   -0.7224  -46.0877    7.8568 C   0  0  0  0  0  0  0  0  0  0  0  0
   -1.5391  -45.3745    6.9378 O   0  0  0  0  0  0  0  0  0  0  0  0
   -2.8810  -45.1822    7.1989 C   0  0  0  0  0  0  0  0  0  0  0  0
   -5.6349  -44.5517    7.4221 C   0  0  0  0  0  0  0  0  0  0  0  0
   -4.8882  -44.0528    6.3462 C   0  0  0  0  0  0  0  0  0  0  0  0
   -3.5272  -44.3675    6.2431 C   0  0  0  0  0  0  0  0  0  0  0  0
    0.9807  -50.5349    6.6696 N   0  0  0  0  0  0  0  0  0  0  0  0
   -4.5301  -46.7432   10.1164 C   0  0  0  0  0  0  0  0  0  0  0  0
   -5.5194  -46.0063    9.4887 N   0  0  0  0  0  0  0  0  0  0  0  0
   -5.0107  -45.3807    8.3736 C   0  0  3  0  0  0  0  0  0  0  0  0
   -3.6231  -45.7297    8.3012 C   0  0  0  0  0  0  0  0  0  0  0  0
   -3.3547  -46.5895    9.4315 C   0  0  0  0  0  0  0  0  0  0  0  0
    4.4539  -48.1514    7.2515 H   0  0  0  0  0  0  0  0  0  0  0  0
   -0.0617  -50.6854    5.2486 H   0  0  0  0  0  0  0  0  0  0  0  0
   -1.1203  -52.5160    6.4348 H   0  0  0  0  0  0  0  0  0  0  0  0
   -3.4285  -51.8632    5.7286 H   0  0  0  0  0  0  0  0  0  0  0  0
   -3.9277  -49.4886    5.1805 H   0  0  0  0  0  0  0  0  0  0  0  0
   -2.1565  -47.7664    5.3372 H   0  0  0  0  0  0  0  0  0  0  0  0
    1.8021  -46.7504    5.5246 H   0  0  0  0  0  0  0  0  0  0  0  0
    0.0352  -46.5536    5.2676 H   0  0  0  0  0  0  0  0  0  0  0  0
    1.3685  -46.5890    8.0232 H   0  0  0  0  0  0  0  0  0  0  0  0
    1.0304  -45.0895    7.0937 H   0  0  0  0  0  0  0  0  0  0  0  0
   -1.1027  -47.1125    7.9797 H   0  0  0  0  0  0  0  0  0  0  0  0
   -0.7210  -45.5778    8.8315 H   0  0  0  0  0  0  0  0  0  0  0  0
   -6.6811  -44.3022    7.5206 H   0  0  0  0  0  0  0  0  0  0  0  0
   -5.3594  -43.4293    5.6009 H   0  0  0  0  0  0  0  0  0  0  0  0
   -2.9579  -43.9776    5.4123 H   0  0  0  0  0  0  0  0  0  0  0  0
   -4.6640  -47.3433   11.0043 H   0  0  0  0  0  0  0  0  0  0  0  0
   -4.7593  -44.4984    8.9806 H   0  0  0  0  0  0  0  0  0  0  0  0
   -2.4025  -47.0296    9.6884 H   0  0  0  0  0  0  0  0  0  0  0  0
  1  2  2  0  0  0  0
  2  3  1  0  0  0  0
  2  4  1  0  0  0  0
  4 11  1  0  0  0  0
  4 20  2  0  0  0  0
  5  6  1  0  0  0  0
  5 10  1  0  0  0  0
  5 20  1  0  0  0  0
  6  7  2  0  0  0  0
  7  8  1  0  0  0  0
  8  9  2  0  0  0  0
  9 10  1  0  0  0  0
 10 11  2  0  0  0  0
 11 12  1  0  0  0  0
 12 13  1  0  0  0  0
 13 14  1  0  0  0  0
 14 15  1  0  0  0  0
 15 16  1  0  0  0  0
 16 19  2  0  0  0  0
 16 24  1  0  0  0  0
 17 18  2  0  0  0  0
 17 23  1  0  0  0  0
 18 19  1  0  0  0  0
 21 22  2  0  0  0  0
 21 25  1  0  0  0  0
 22 23  1  0  0  0  0
 23 24  1  0  0  0  0
 24 25  2  0  0  0  0
  3 26  1  0  0  0  0
  5 27  1  0  0  0  0
  6 28  1  0  0  0  0
  7 29  1  0  0  0  0
  8 30  1  0  0  0  0
  9 31  1  0  0  0  0
 12 32  1  0  0  0  0
 12 33  1  0  0  0  0
 13 34  1  0  0  0  0
 13 35  1  0  0  0  0
 14 36  1  0  0  0  0
 14 37  1  0  0  0  0
 17 38  1  0  0  0  0
 18 39  1  0  0  0  0
 19 40  1  0  0  0  0
 21 41  1  0  0  0  0
 23 42  1  0  0  0  0
 25 43  1  0  0  0  0
M  END
> <r_user_dG.exp>
-6.6626190630157

$$$$
48
  -OEChem-05162309453D
 Structure written by MMmdl.
 43 46  0     1  0  0  0  0  0999 V2000
    3.5962  -50.2382    7.2860 O   0  0  0  0  0  0  0  0  0  0  0  0
    2.9915  -49.1832    6.9785 C   0  0  0  0  0  0  0  0  0  0  0  0
    3.5468  -48.0563    6.9856 O   0  0  0  0  0  0  0  0  0  0  0  0
    1.5667  -49.2814    6.6034 C   0  0  0  0  0  0  0  0  0  0  0  0
   -0.3493  -50.4961    6.2933 C   0  0  3  0  0  0  0  0  0  0  0  0
   -1.3483  -51.4866    6.2008 C   0  0  0  0  0  0  0  0  0  0  0  0
   -2.6508  -51.1171    5.7985 C   0  0  0  0  0  0  0  0  0  0  0  0
   -2.9320  -49.7715    5.4886 C   0  0  0  0  0  0  0  0  0  0  0  0
   -1.9224  -48.7928    5.5781 C   0  0  0  0  0  0  0  0  0  0  0  0
   -0.6057  -49.1301    5.9783 C   0  0  0  0  0  0  0  0  0  0  0  0
    0.6128  -48.3833    6.1734 C   0  0  0  0  0  0  0  0  0  0  0  0
    0.8068  -46.9172    5.9622 C   0  0  0  0  0  0  0  0  0  0  0  0
    0.7034  -46.1229    7.2813 C   0  0  0  0  0  0  0  0  0  0  0  0
   -0.7224  -46.0877    7.8568 C   0  0  0  0  0  0  0  0  0  0  0  0
   -1.5391  -45.3745    6.9378 O   0  0  0  0  0  0  0  0  0  0  0  0
   -2.8810  -45.1822    7.1989 C   0  0  3  0  0  0  0  0  0  0  0  0
   -5.6349  -44.5517    7.4221 C   0  0  0  0  0  0  0  0  0  0  0  0
   -4.8882  -44.0528    6.3462 C   0  0  0  0  0  0  0  0  0  0  0  0
   -3.5272  -44.3675    6.2431 C   0  0  0  0  0  0  0  0  0  0  0  0
    0.9807  -50.5349    6.6696 N   0  0  0  0  0  0  0  0  0  0  0  0
   -4.5301  -46.7432   10.1164 C   0  0  0  0  0  0  0  0  0  0  0  0
   -5.5194  -46.0063    9.4887 N   0  0  0  0  0  0  0  0  0  0  0  0
   -5.0107  -45.3807    8.3736 C   0  0  0  0  0  0  0  0  0  0  0  0
   -3.6231  -45.7297    8.3012 C   0  0  0  0  0  0  0  0  0  0  0  0
   -3.3547  -46.5895    9.4315 C   0  0  0  0  0  0  0  0  0  0  0  0
    4.4539  -48.1514    7.2515 H   0  0  0  0  0  0  0  0  0  0  0  0
   -0.0617  -50.6854    5.2486 H   0  0  0  0  0  0  0  0  0  0  0  0
   -1.1203  -52.5160    6.4348 H   0  0  0  0  0  0  0  0  0  0  0  0
   -3.4285  -51.8632    5.7286 H   0  0  0  0  0  0  0  0  0  0  0  0
   -3.9277  -49.4886    5.1805 H   0  0  0  0  0  0  0  0  0  0  0  0
   -2.1565  -47.7664    5.3372 H   0  0  0  0  0  0  0  0  0  0  0  0
    1.8021  -46.7504    5.5246 H   0  0  0  0  0  0  0  0  0  0  0  0
    0.0352  -46.5536    5.2676 H   0  0  0  0  0  0  0  0  0  0  0  0
    1.3685  -46.5890    8.0232 H   0  0  0  0  0  0  0  0  0  0  0  0
    1.0304  -45.0895    7.0937 H   0  0  0  0  0  0  0  0  0  0  0  0
   -1.1027  -47.1125    7.9797 H   0  0  0  0  0  0  0  0  0  0  0  0
   -0.7210  -45.5778    8.8315 H   0  0  0  0  0  0  0  0  0  0  0  0
   -2.6400  -44.2924    7.7991 H   0  0  0  0  0  0  0  0  0  0  0  0
   -6.6811  -44.3022    7.5206 H   0  0  0  0  0  0  0  0  0  0  0  0
   -5.3594  -43.4293    5.6009 H   0  0  0  0  0  0  0  0  0  0  0  0
   -2.9579  -43.9776    5.4123 H   0  0  0  0  0  0  0  0  0  0  0  0
   -4.6640  -47.3433   11.0043 H   0  0  0  0  0  0  0  0  0  0  0  0
   -2.4025  -47.0296    9.6884 H   0  0  0  0  0  0  0  0  0  0  0  0
  1  2  2  0  0  0  0
  2  3  1  0  0  0  0
  2  4  1  0  0  0  0
  4 11  1  0  0  0  0
  4 20  2  0  0  0  0
  5  6  1  0  0  0  0
  5 10  1  0  0  0  0
  5 20  1  0  0  0  0
  6  7  2  0  0  0  0
  7  8  1  0  0  0  0
  8  9  2  0  0  0  0
  9 10  1  0  0  0  0
 10 11  2  0  0  0  0
 11 12  1  0  0  0  0
 12 13  1  0  0  0  0
 13 14  1  0  0  0  0
 14 15  1  0  0  0  0
 15 16  1  0  0  0  0
 16 19  1  0  0  0  0
 16 24  1  0  0  0  0
 17 18  1  0  0  0  0
 17 23  2  0  0  0  0
 18 19  2  0  0  0  0
 21 22  2  0  0  0  0
 21 25  1  0  0  0  0
 22 23  1  0  0  0  0
 23 24  1  0  0  0  0
 24 25  2  0  0  0  0
  3 26  1  0  0  0  0
  5 27  1  0  0  0  0
  6 28  1  0  0  0  0
  7 29  1  0  0  0  0
  8 30  1  0  0  0  0
  9 31  1  0  0  0  0
 12 32  1  0  0  0  0
 12 33  1  0  0  0  0
 13 34  1  0  0  0  0
 13 35  1  0  0  0  0
 14 36  1  0  0  0  0
 14 37  1  0  0  0  0
 16 38  1  0  0  0  0
 17 39  1  0  0  0  0
 18 40  1  0  0  0  0
 19 41  1  0  0  0  0
 21 42  1  0  0  0  0
 25 43  1  0  0  0  0
M  END
> <r_user_dG.exp>
-6.6626190630157

$$$$
48
  -OEChem-05162309453D
 Structure written by MMmdl.
 43 46  0     1  0  0  0  0  0999 V2000
    3.5962  -50.2382    7.2860 O   0  0  0  0  0  0  0  0  0  0  0  0
    2.9915  -49.1832    6.9785 C   0  0  0  0  0  0  0  0  0  0  0  0
    3.5468  -48.0563    6.9856 O   0  0  0  0  0  0  0  0  0  0  0  0
    1.5667  -49.2814    6.6034 C   0  0  0  0  0  0  0  0  0  0  0  0
   -0.3493  -50.4961    6.2933 C   0  0  3  0  0  0  0  0  0  0  0  0
   -1.3483  -51.4866    6.2008 C   0  0  0  0  0  0  0  0  0  0  0  0
   -2.6508  -51.1171    5.7985 C   0  0  0  0  0  0  0  0  0  0  0  0
   -2.9320  -49.7715    5.4886 C   0  0  0  0  0  0  0  0  0  0  0  0
   -1.9224  -48.7928    5.5781 C   0  0  0  0  0  0  0  0  0  0  0  0
   -0.6057  -49.1301    5.9783 C   0  0  0  0  0  0  0  0  0  0  0  0
    0.6128  -48.3833    6.1734 C   0  0  0  0  0  0  0  0  0  0  0  0
    0.8068  -46.9172    5.9622 C   0  0  0  0  0  0  0  0  0  0  0  0
    0.7034  -46.1229    7.2813 C   0  0  0  0  0  0  0  0  0  0  0  0
   -0.7224  -46.0877    7.8568 C   0  0  0  0  0  0  0  0  0  0  0  0
   -1.5391  -45.3745    6.9378 O   0  0  0  0  0  0  0  0  0  0  0  0
   -2.8810  -45.1822    7.1989 C   0  0  0  0  0  0  0  0  0  0  0  0
   -5.6349  -44.5517    7.4221 C   0  0  0  0  0  0  0  0  0  0  0  0
   -4.8882  -44.0528    6.3462 C   0  0  0  0  0  0  0  0  0  0  0  0
   -3.5272  -44.3675    6.2431 C   0  0  0  0  0  0  0  0  0  0  0  0
    0.9807  -50.5349    6.6696 N   0  0  0  0  0  0  0  0  0  0  0  0
   -4.5301  -46.7432   10.1164 C   0  0  0  0  0  0  0  0  0  0  0  0
   -5.5194  -46.0063    9.4887 N   0  0  0  0  0  0  0  0  0  0  0  0
   -5.0107  -45.3807    8.3736 C   0  0  0  0  0  0  0  0  0  0  0  0
   -3.6231  -45.7297    8.3012 C   0  0  0  0  0  0  0  0  0  0  0  0
   -3.3547  -46.5895    9.4315 C   0  0  0  0  0  0  0  0  0  0  0  0
    4.4539  -48.1514    7.2515 H   0  0  0  0  0  0  0  0  0  0  0  0
   -0.0617  -50.6854    5.2486 H   0  0  0  0  0  0  0  0  0  0  0  0
   -1.1203  -52.5160    6.4348 H   0  0  0  0  0  0  0  0  0  0  0  0
   -3.4285  -51.8632    5.7286 H   0  0  0  0  0  0  0  0  0  0  0  0
   -3.9277  -49.4886    5.1805 H   0  0  0  0  0  0  0  0  0  0  0  0
   -2.1565  -47.7664    5.3372 H   0  0  0  0  0  0  0  0  0  0  0  0
    1.8021  -46.7504    5.5246 H   0  0  0  0  0  0  0  0  0  0  0  0
    0.0352  -46.5536    5.2676 H   0  0  0  0  0  0  0  0  0  0  0  0
    1.3685  -46.5890    8.0232 H   0  0  0  0  0  0  0  0  0  0  0  0
    1.0304  -45.0895    7.0937 H   0  0  0  0  0  0  0  0  0  0  0  0
   -1.1027  -47.1125    7.9797 H   0  0  0  0  0  0  0  0  0  0  0  0
   -0.7210  -45.5778    8.8315 H   0  0  0  0  0  0  0  0  0  0  0  0
   -6.6811  -44.3022    7.5206 H   0  0  0  0  0  0  0  0  0  0  0  0
   -5.3706  -44.4163    5.4269 H   0  0  0  0  0  0  0  0  0  0  0  0
   -4.9600  -42.9560    6.3889 H   0  0  0  0  0  0  0  0  0  0  0  0
   -2.9579  -43.9776    5.4123 H   0  0  0  0  0  0  0  0  0  0  0  0
   -4.6640  -47.3433   11.0043 H   0  0  0  0  0  0  0  0  0  0  0  0
   -2.4025  -47.0296    9.6884 H   0  0  0  0  0  0  0  0  0  0  0  0
  1  2  2  0  0  0  0
  2  3  1  0  0  0  0
  2  4  1  0  0  0  0
  4 11  1  0  0  0  0
  4 20  2  0  0  0  0
  5  6  1  0  0  0  0
  5 10  1  0  0  0  0
  5 20  1  0  0  0  0
  6  7  2  0  0  0  0
  7  8  1  0  0  0  0
  8  9  2  0  0  0  0
  9 10  1  0  0  0  0
 10 11  2  0  0  0  0
 11 12  1  0  0  0  0
 12 13  1  0  0  0  0
 13 14  1  0  0  0  0
 14 15  1  0  0  0  0
 15 16  1  0  0  0  0
 16 19  2  0  0  0  0
 16 24  1  0  0  0  0
 17 18  1  0  0  0  0
 17 23  2  0  0  0  0
 18 19  1  0  0  0  0
 21 22  2  0  0  0  0
 21 25  1  0  0  0  0
 22 23  1  0  0  0  0
 23 24  1  0  0  0  0
 24 25  2  0  0  0  0
  3 26  1  0  0  0  0
  5 27  1  0  0  0  0
  6 28  1  0  0  0  0
  7 29  1  0  0  0  0
  8 30  1  0  0  0  0
  9 31  1  0  0  0  0
 12 32  1  0  0  0  0
 12 33  1  0  0  0  0
 13 34  1  0  0  0  0
 13 35  1  0  0  0  0
 14 36  1  0  0  0  0
 14 37  1  0  0  0  0
 17 38  1  0  0  0  0
 18 39  1  0  0  0  0
 18 40  1  0  0  0  0
 19 41  1  0  0  0  0
 21 42  1  0  0  0  0
 25 43  1  0  0  0  0
M  END
> <r_user_dG.exp>
-6.6626190630157

$$$$
48
  -OEChem-05162309453D
 Structure written by MMmdl.
 43 46  0     1  0  0  0  0  0999 V2000
    3.5962  -50.2382    7.2860 O   0  0  0  0  0  0  0  0  0  0  0  0
    2.9915  -49.1832    6.9785 C   0  0  0  0  0  0  0  0  0  0  0  0
    3.5468  -48.0563    6.9856 O   0  0  0  0  0  0  0  0  0  0  0  0
    1.5667  -49.2814    6.6034 C   0  0  0  0  0  0  0  0  0  0  0  0
   -0.3493  -50.4961    6.2933 C   0  0  3  0  0  0  0  0  0  0  0  0
   -1.3483  -51.4866    6.2008 C   0  0  0  0  0  0  0  0  0  0  0  0
   -2.6508  -51.1171    5.7985 C   0  0  0  0  0  0  0  0  0  0  0  0
   -2.9320  -49.7715    5.4886 C   0  0  0  0  0  0  0  0  0  0  0  0
   -1.9224  -48.7928    5.5781 C   0  0  0  0  0  0  0  0  0  0  0  0
   -0.6057  -49.1301    5.9783 C   0  0  0  0  0  0  0  0  0  0  0  0
    0.6128  -48.3833    6.1734 C   0  0  0  0  0  0  0  0  0  0  0  0
    0.8068  -46.9172    5.9622 C   0  0  0  0  0  0  0  0  0  0  0  0
    0.7034  -46.1229    7.2813 C   0  0  0  0  0  0  0  0  0  0  0  0
   -0.7224  -46.0877    7.8568 C   0  0  0  0  0  0  0  0  0  0  0  0
   -1.5391  -45.3745    6.9378 O   0  0  0  0  0  0  0  0  0  0  0  0
   -2.8810  -45.1822    7.1989 C   0  0  0  0  0  0  0  0  0  0  0  0
   -5.6349  -44.5517    7.4221 C   0  0  0  0  0  0  0  0  0  0  0  0
   -4.8882  -44.0528    6.3462 C   0  0  0  0  0  0  0  0  0  0  0  0
   -3.5272  -44.3675    6.2431 C   0  0  0  0  0  0  0  0  0  0  0  0
    0.9807  -50.5349    6.6696 N   0  0  0  0  0  0  0  0  0  0  0  0
   -4.5301  -46.7432   10.1164 C   0  0  0  0  0  0  0  0  0  0  0  0
   -5.5194  -46.0063    9.4887 N   0  0  0  0  0  0  0  0  0  0  0  0
   -5.0107  -45.3807    8.3736 C   0  0  0  0  0  0  0  0  0  0  0  0
   -3.6231  -45.7297    8.3012 C   0  0  0  0  0  0  0  0  0  0  0  0
   -3.3547  -46.5895    9.4315 C   0  0  0  0  0  0  0  0  0  0  0  0
    4.4539  -48.1514    7.2515 H   0  0  0  0  0  0  0  0  0  0  0  0
   -0.0617  -50.6854    5.2486 H   0  0  0  0  0  0  0  0  0  0  0  0
   -1.1203  -52.5160    6.4348 H   0  0  0  0  0  0  0  0  0  0  0  0
   -3.4285  -51.8632    5.7286 H   0  0  0  0  0  0  0  0  0  0  0  0
   -3.9277  -49.4886    5.1805 H   0  0  0  0  0  0  0  0  0  0  0  0
   -2.1565  -47.7664    5.3372 H   0  0  0  0  0  0  0  0  0  0  0  0
    1.8021  -46.7504    5.5246 H   0  0  0  0  0  0  0  0  0  0  0  0
    0.0352  -46.5536    5.2676 H   0  0  0  0  0  0  0  0  0  0  0  0
    1.3685  -46.5890    8.0232 H   0  0  0  0  0  0  0  0  0  0  0  0
    1.0304  -45.0895    7.0937 H   0  0  0  0  0  0  0  0  0  0  0  0
   -1.1027  -47.1125    7.9797 H   0  0  0  0  0  0  0  0  0  0  0  0
   -0.7210  -45.5778    8.8315 H   0  0  0  0  0  0  0  0  0  0  0  0
   -6.6811  -44.3022    7.5206 H   0  0  0  0  0  0  0  0  0  0  0  0
   -5.3594  -43.4293    5.6009 H   0  0  0  0  0  0  0  0  0  0  0  0
   -2.9873  -43.4091    6.2373 H   0  0  0  0  0  0  0  0  0  0  0  0
   -3.3976  -44.8673    5.2718 H   0  0  0  0  0  0  0  0  0  0  0  0
   -4.6640  -47.3433   11.0043 H   0  0  0  0  0  0  0  0  0  0  0  0
   -2.4025  -47.0296    9.6884 H   0  0  0  0  0  0  0  0  0  0  0  0
  1  2  2  0  0  0  0
  2  3  1  0  0  0  0
  2  4  1  0  0  0  0
  4 11  1  0  0  0  0
  4 20  2  0  0  0  0
  5  6  1  0  0  0  0
  5 10  1  0  0  0  0
  5 20  1  0  0  0  0
  6  7  2  0  0  0  0
  7  8  1  0  0  0  0
  8  9  2  0  0  0  0
  9 10  1  0  0  0  0
 10 11  2  0  0  0  0
 11 12  1  0  0  0  0
 12 13  1  0  0  0  0
 13 14  1  0  0  0  0
 14 15  1  0  0  0  0
 15 16  1  0  0  0  0
 16 19  1  0  0  0  0
 16 24  2  0  0  0  0
 17 18  2  0  0  0  0
 17 23  1  0  0  0  0
 18 19  1  0  0  0  0
 21 22  1  0  0  0  0
 21 25  2  0  0  0  0
 22 23  2  0  0  0  0
 23 24  1  0  0  0  0
 24 25  1  0  0  0  0
  3 26  1  0  0  0  0
  5 27  1  0  0  0  0
  6 28  1  0  0  0  0
  7 29  1  0  0  0  0
  8 30  1  0  0  0  0
  9 31  1  0  0  0  0
 12 32  1  0  0  0  0
 12 33  1  0  0  0  0
 13 34  1  0  0  0  0
 13 35  1  0  0  0  0
 14 36  1  0  0  0  0
 14 37  1  0  0  0  0
 17 38  1  0  0  0  0
 18 39  1  0  0  0  0
 19 40  1  0  0  0  0
 19 41  1  0  0  0  0
 21 42  1  0  0  0  0
 25 43  1  0  0  0  0
M  END
> <r_user_dG.exp>
-6.6626190630157

$$$$
48
  -OEChem-05162309453D
 Structure written by MMmdl.
 43 46  0     1  0  0  0  0  0999 V2000
    3.5962  -50.2382    7.2860 O   0  0  0  0  0  0  0  0  0  0  0  0
    2.9915  -49.1832    6.9785 C   0  0  0  0  0  0  0  0  0  0  0  0
    3.5468  -48.0563    6.9856 O   0  0  0  0  0  0  0  0  0  0  0  0
    1.5667  -49.2814    6.6034 C   0  0  0  0  0  0  0  0  0  0  0  0
   -0.3493  -50.4961    6.2933 C   0  0  3  0  0  0  0  0  0  0  0  0
   -1.3483  -51.4866    6.2008 C   0  0  0  0  0  0  0  0  0  0  0  0
   -2.6508  -51.1171    5.7985 C   0  0  0  0  0  0  0  0  0  0  0  0
   -2.9320  -49.7715    5.4886 C   0  0  0  0  0  0  0  0  0  0  0  0
   -1.9224  -48.7928    5.5781 C   0  0  0  0  0  0  0  0  0  0  0  0
   -0.6057  -49.1301    5.9783 C   0  0  0  0  0  0  0  0  0  0  0  0
    0.6128  -48.3833    6.1734 C   0  0  0  0  0  0  0  0  0  0  0  0
    0.8068  -46.9172    5.9622 C   0  0  0  0  0  0  0  0  0  0  0  0
    0.7034  -46.1229    7.2813 C   0  0  0  0  0  0  0  0  0  0  0  0
   -0.7224  -46.0877    7.8568 C   0  0  0  0  0  0  0  0  0  0  0  0
   -1.5391  -45.3745    6.9378 O   0  0  0  0  0  0  0  0  0  0  0  0
   -2.8810  -45.1822    7.1989 C   0  0  0  0  0  0  0  0  0  0  0  0
   -5.6349  -44.5517    7.4221 C   0  0  0  0  0  0  0  0  0  0  0  0
   -4.8882  -44.0528    6.3462 C   0  0  0  0  0  0  0  0  0  0  0  0
   -3.5272  -44.3675    6.2431 C   0  0  0  0  0  0  0  0  0  0  0  0
    0.9807  -50.5349    6.6696 N   0  0  0  0  0  0  0  0  0  0  0  0
   -4.5301  -46.7432   10.1164 C   0  0  0  0  0  0  0  0  0  0  0  0
   -5.5194  -46.0063    9.4887 N   0  0  0  0  0  0  0  0  0  0  0  0
   -5.0107  -45.3807    8.3736 C   0  0  0  0  0  0  0  0  0  0  0  0
   -3.6231  -45.7297    8.3012 C   0  0  0  0  0  0  0  0  0  0  0  0
   -3.3547  -46.5895    9.4315 C   0  0  0  0  0  0  0  0  0  0  0  0
    4.4539  -48.1514    7.2515 H   0  0  0  0  0  0  0  0  0  0  0  0
   -0.0617  -50.6854    5.2486 H   0  0  0  0  0  0  0  0  0  0  0  0
   -1.1203  -52.5160    6.4348 H   0  0  0  0  0  0  0  0  0  0  0  0
   -3.4285  -51.8632    5.7286 H   0  0  0  0  0  0  0  0  0  0  0  0
   -3.9277  -49.4886    5.1805 H   0  0  0  0  0  0  0  0  0  0  0  0
   -2.1565  -47.7664    5.3372 H   0  0  0  0  0  0  0  0  0  0  0  0
    1.8021  -46.7504    5.5246 H   0  0  0  0  0  0  0  0  0  0  0  0
    0.0352  -46.5536    5.2676 H   0  0  0  0  0  0  0  0  0  0  0  0
    1.3685  -46.5890    8.0232 H   0  0  0  0  0  0  0  0  0  0  0  0
    1.0304  -45.0895    7.0937 H   0  0  0  0  0  0  0  0  0  0  0  0
   -1.1027  -47.1125    7.9797 H   0  0  0  0  0  0  0  0  0  0  0  0
   -0.7210  -45.5778    8.8315 H   0  0  0  0  0  0  0  0  0  0  0  0
   -6.0319  -43.6822    7.9666 H   0  0  0  0  0  0  0  0  0  0  0  0
   -6.4683  -45.1277    6.9935 H   0  0  0  0  0  0  0  0  0  0  0  0
   -5.3594  -43.4293    5.6009 H   0  0  0  0  0  0  0  0  0  0  0  0
   -2.9579  -43.9776    5.4123 H   0  0  0  0  0  0  0  0  0  0  0  0
   -4.6640  -47.3433   11.0043 H   0  0  0  0  0  0  0  0  0  0  0  0
   -2.4025  -47.0296    9.6884 H   0  0  0  0  0  0  0  0  0  0  0  0
  1  2  2  0  0  0  0
  2  3  1  0  0  0  0
  2  4  1  0  0  0  0
  4 11  1  0  0  0  0
  4 20  2  0  0  0  0
  5  6  1  0  0  0  0
  5 10  1  0  0  0  0
  5 20  1  0  0  0  0
  6  7  2  0  0  0  0
  7  8  1  0  0  0  0
  8  9  2  0  0  0  0
  9 10  1  0  0  0  0
 10 11  2  0  0  0  0
 11 12  1  0  0  0  0
 12 13  1  0  0  0  0
 13 14  1  0  0  0  0
 14 15  1  0  0  0  0
 15 16  1  0  0  0  0
 16 19  1  0  0  0  0
 16 24  2  0  0  0  0
 17 18  1  0  0  0  0
 17 23  1  0  0  0  0
 18 19  2  0  0  0  0
 21 22  1  0  0  0  0
 21 25  2  0  0  0  0
 22 23  2  0  0  0  0
 23 24  1  0  0  0  0
 24 25  1  0  0  0  0
  3 26  1  0  0  0  0
  5 27  1  0  0  0  0
  6 28  1  0  0  0  0
  7 29  1  0  0  0  0
  8 30  1  0  0  0  0
  9 31  1  0  0  0  0
 12 32  1  0  0  0  0
 12 33  1  0  0  0  0
 13 34  1  0  0  0  0
 13 35  1  0  0  0  0
 14 36  1  0  0  0  0
 14 37  1  0  0  0  0
 17 38  1  0  0  0  0
 17 39  1  0  0  0  0
 18 40  1  0  0  0  0
 19 41  1  0  0  0  0
 21 42  1  0  0  0  0
 25 43  1  0  0  0  0
M  END
> <r_user_dG.exp>
-6.6626190630157

$$$$
48
  -OEChem-05162309453D
 Structure written by MMmdl.
 43 46  0     1  0  0  0  0  0999 V2000
    3.5962  -50.2382    7.2860 O   0  0  0  0  0  0  0  0  0  0  0  0
    2.9915  -49.1832    6.9785 C   0  0  0  0  0  0  0  0  0  0  0  0
    3.5468  -48.0563    6.9856 O   0  0  0  0  0  0  0  0  0  0  0  0
    1.5667  -49.2814    6.6034 C   0  0  0  0  0  0  0  0  0  0  0  0
   -0.3493  -50.4961    6.2933 C   0  0  0  0  0  0  0  0  0  0  0  0
   -1.3483  -51.4866    6.2008 C   0  0  0  0  0  0  0  0  0  0  0  0
   -2.6508  -51.1171    5.7985 C   0  0  0  0  0  0  0  0  0  0  0  0
   -2.9320  -49.7715    5.4886 C   0  0  0  0  0  0  0  0  0  0  0  0
   -1.9224  -48.7928    5.5781 C   0  0  0  0  0  0  0  0  0  0  0  0
   -0.6057  -49.1301    5.9783 C   0  0  0  0  0  0  0  0  0  0  0  0
    0.6128  -48.3833    6.1734 C   0  0  0  0  0  0  0  0  0  0  0  0
    0.8068  -46.9172    5.9622 C   0  0  0  0  0  0  0  0  0  0  0  0
    0.7034  -46.1229    7.2813 C   0  0  0  0  0  0  0  0  0  0  0  0
   -0.7224  -46.0877    7.8568 C   0  0  0  0  0  0  0  0  0  0  0  0
   -1.5391  -45.3745    6.9378 O   0  0  0  0  0  0  0  0  0  0  0  0
   -2.8810  -45.1822    7.1989 C   0  0  0  0  0  0  0  0  0  0  0  0
   -5.6349  -44.5517    7.4221 C   0  0  0  0  0  0  0  0  0  0  0  0
   -4.8882  -44.0528    6.3462 C   0  0  0  0  0  0  0  0  0  0  0  0
   -3.5272  -44.3675    6.2431 C   0  0  0  0  0  0  0  0  0  0  0  0
    0.9807  -50.5349    6.6696 N   0  0  0  0  0  0  0  0  0  0  0  0
   -4.5301  -46.7432   10.1164 C   0  0  0  0  0  0  0  0  0  0  0  0
   -5.5194  -46.0063    9.4887 N   0  0  0  0  0  0  0  0  0  0  0  0
   -5.0107  -45.3807    8.3736 C   0  0  0  0  0  0  0  0  0  0  0  0
   -3.6231  -45.7297    8.3012 C   0  0  3  0  0  0  0  0  0  0  0  0
   -3.3547  -46.5895    9.4315 C   0  0  0  0  0  0  0  0  0  0  0  0
    4.4539  -48.1514    7.2515 H   0  0  0  0  0  0  0  0  0  0  0  0
   -1.1203  -52.5160    6.4348 H   0  0  0  0  0  0  0  0  0  0  0  0
   -3.4285  -51.8632    5.7286 H   0  0  0  0  0  0  0  0  0  0  0  0
   -3.2952  -49.7561    4.4504 H   0  0  0  0  0  0  0  0  0  0  0  0
   -3.7398  -49.4542    6.1645 H   0  0  0  0  0  0  0  0  0  0  0  0
   -2.1565  -47.7664    5.3372 H   0  0  0  0  0  0  0  0  0  0  0  0
    1.8021  -46.7504    5.5246 H   0  0  0  0  0  0  0  0  0  0  0  0
    0.0352  -46.5536    5.2676 H   0  0  0  0  0  0  0  0  0  0  0  0
    1.3685  -46.5890    8.0232 H   0  0  0  0  0  0  0  0  0  0  0  0
    1.0304  -45.0895    7.0937 H   0  0  0  0  0  0  0  0  0  0  0  0
   -1.1027  -47.1125    7.9797 H   0  0  0  0  0  0  0  0  0  0  0  0
   -0.7210  -45.5778    8.8315 H   0  0  0  0  0  0  0  0  0  0  0  0
   -6.6811  -44.3022    7.5206 H   0  0  0  0  0  0  0  0  0  0  0  0
   -5.3594  -43.4293    5.6009 H   0  0  0  0  0  0  0  0  0  0  0  0
   -2.9579  -43.9776    5.4123 H   0  0  0  0  0  0  0  0  0  0  0  0
   -4.6640  -47.3433   11.0043 H   0  0  0  0  0  0  0  0  0  0  0  0
   -3.3694  -44.8493    8.9100 H   0  0  0  0  0  0  0  0  0  0  0  0
   -2.4025  -47.0296    9.6884 H   0  0  0  0  0  0  0  0  0  0  0  0
  1  2  2  0  0  0  0
  2  3  1  0  0  0  0
  2  4  1  0  0  0  0
  4 11  2  0  0  0  0
  4 20  1  0  0  0  0
  5  6  1  0  0  0  0
  5 10  1  0  0  0  0
  5 20  2  0  0  0  0
  6  7  2  0  0  0  0
  7  8  1  0  0  0  0
  8  9  1  0  0  0  0
  9 10  2  0  0  0  0
 10 11  1  0  0  0  0
 11 12  1  0  0  0  0
 12 13  1  0  0  0  0
 13 14  1  0  0  0  0
 14 15  1  0  0  0  0
 15 16  1  0  0  0  0
 16 19  2  0  0  0  0
 16 24  1  0  0  0  0
 17 18  2  0  0  0  0
 17 23  1  0  0  0  0
 18 19  1  0  0  0  0
 21 22  1  0  0  0  0
 21 25  2  0  0  0  0
 22 23  2  0  0  0  0
 23 24  1  0  0  0  0
 24 25  1  0  0  0  0
  3 26  1  0  0  0  0
  6 27  1  0  0  0  0
  7 28  1  0  0  0  0
  8 29  1  0  0  0  0
  8 30  1  0  0  0  0
  9 31  1  0  0  0  0
 12 32  1  0  0  0  0
 12 33  1  0  0  0  0
 13 34  1  0  0  0  0
 13 35  1  0  0  0  0
 14 36  1  0  0  0  0
 14 37  1  0  0  0  0
 17 38  1  0  0  0  0
 18 39  1  0  0  0  0
 19 40  1  0  0  0  0
 21 41  1  0  0  0  0
 24 42  1  0  0  0  0
 25 43  1  0  0  0  0
M  END
> <r_user_dG.exp>
-6.6626190630157

$$$$
48
  -OEChem-05162309453D
 Structure written by MMmdl.
 43 46  0     1  0  0  0  0  0999 V2000
    3.5962  -50.2382    7.2860 O   0  0  0  0  0  0  0  0  0  0  0  0
    2.9915  -49.1832    6.9785 C   0  0  0  0  0  0  0  0  0  0  0  0
    3.5468  -48.0563    6.9856 O   0  0  0  0  0  0  0  0  0  0  0  0
    1.5667  -49.2814    6.6034 C   0  0  0  0  0  0  0  0  0  0  0  0
   -0.3493  -50.4961    6.2933 C   0  0  0  0  0  0  0  0  0  0  0  0
   -1.3483  -51.4866    6.2008 C   0  0  0  0  0  0  0  0  0  0  0  0
   -2.6508  -51.1171    5.7985 C   0  0  0  0  0  0  0  0  0  0  0  0
   -2.9320  -49.7715    5.4886 C   0  0  0  0  0  0  0  0  0  0  0  0
   -1.9224  -48.7928    5.5781 C   0  0  0  0  0  0  0  0  0  0  0  0
   -0.6057  -49.1301    5.9783 C   0  0  0  0  0  0  0  0  0  0  0  0
    0.6128  -48.3833    6.1734 C   0  0  0  0  0  0  0  0  0  0  0  0
    0.8068  -46.9172    5.9622 C   0  0  0  0  0  0  0  0  0  0  0  0
    0.7034  -46.1229    7.2813 C   0  0  0  0  0  0  0  0  0  0  0  0
   -0.7224  -46.0877    7.8568 C   0  0  0  0  0  0  0  0  0  0  0  0
   -1.5391  -45.3745    6.9378 O   0  0  0  0  0  0  0  0  0  0  0  0
   -2.8810  -45.1822    7.1989 C   0  0  0  0  0  0  0  0  0  0  0  0
   -5.6349  -44.5517    7.4221 C   0  0  0  0  0  0  0  0  0  0  0  0
   -4.8882  -44.0528    6.3462 C   0  0  0  0  0  0  0  0  0  0  0  0
   -3.5272  -44.3675    6.2431 C   0  0  0  0  0  0  0  0  0  0  0  0
    0.9807  -50.5349    6.6696 N   0  0  0  0  0  0  0  0  0  0  0  0
   -4.5301  -46.7432   10.1164 C   0  0  0  0  0  0  0  0  0  0  0  0
   -5.5194  -46.0063    9.4887 N   0  0  0  0  0  0  0  0  0  0  0  0
   -5.0107  -45.3807    8.3736 C   0  0  3  0  0  0  0  0  0  0  0  0
   -3.6231  -45.7297    8.3012 C   0  0  0  0  0  0  0  0  0  0  0  0
   -3.3547  -46.5895    9.4315 C   0  0  0  0  0  0  0  0  0  0  0  0
    4.4539  -48.1514    7.2515 H   0  0  0  0  0  0  0  0  0  0  0  0
   -1.1203  -52.5160    6.4348 H   0  0  0  0  0  0  0  0  0  0  0  0
   -3.4285  -51.8632    5.7286 H   0  0  0  0  0  0  0  0  0  0  0  0
   -3.2952  -49.7561    4.4504 H   0  0  0  0  0  0  0  0  0  0  0  0
   -3.7398  -49.4542    6.1645 H   0  0  0  0  0  0  0  0  0  0  0  0
   -2.1565  -47.7664    5.3372 H   0  0  0  0  0  0  0  0  0  0  0  0
    1.8021  -46.7504    5.5246 H   0  0  0  0  0  0  0  0  0  0  0  0
    0.0352  -46.5536    5.2676 H   0  0  0  0  0  0  0  0  0  0  0  0
    1.3685  -46.5890    8.0232 H   0  0  0  0  0  0  0  0  0  0  0  0
    1.0304  -45.0895    7.0937 H   0  0  0  0  0  0  0  0  0  0  0  0
   -1.1027  -47.1125    7.9797 H   0  0  0  0  0  0  0  0  0  0  0  0
   -0.7210  -45.5778    8.8315 H   0  0  0  0  0  0  0  0  0  0  0  0
   -6.6811  -44.3022    7.5206 H   0  0  0  0  0  0  0  0  0  0  0  0
   -5.3594  -43.4293    5.6009 H   0  0  0  0  0  0  0  0  0  0  0  0
   -2.9579  -43.9776    5.4123 H   0  0  0  0  0  0  0  0  0  0  0  0
   -4.6640  -47.3433   11.0043 H   0  0  0  0  0  0  0  0  0  0  0  0
   -4.7593  -44.4984    8.9806 H   0  0  0  0  0  0  0  0  0  0  0  0
   -2.4025  -47.0296    9.6884 H   0  0  0  0  0  0  0  0  0  0  0  0
  1  2  2  0  0  0  0
  2  3  1  0  0  0  0
  2  4  1  0  0  0  0
  4 11  2  0  0  0  0
  4 20  1  0  0  0  0
  5  6  1  0  0  0  0
  5 10  1  0  0  0  0
  5 20  2  0  0  0  0
  6  7  2  0  0  0  0
  7  8  1  0  0  0  0
  8  9  1  0  0  0  0
  9 10  2  0  0  0  0
 10 11  1  0  0  0  0
 11 12  1  0  0  0  0
 12 13  1  0  0  0  0
 13 14  1  0  0  0  0
 14 15  1  0  0  0  0
 15 16  1  0  0  0  0
 16 19  2  0  0  0  0
 16 24  1  0  0  0  0
 17 18  2  0  0  0  0
 17 23  1  0  0  0  0
 18 19  1  0  0  0  0
 21 22  2  0  0  0  0
 21 25  1  0  0  0  0
 22 23  1  0  0  0  0
 23 24  1  0  0  0  0
 24 25  2  0  0  0  0
  3 26  1  0  0  0  0
  6 27  1  0  0  0  0
  7 28  1  0  0  0  0
  8 29  1  0  0  0  0
  8 30  1  0  0  0  0
  9 31  1  0  0  0  0
 12 32  1  0  0  0  0
 12 33  1  0  0  0  0
 13 34  1  0  0  0  0
 13 35  1  0  0  0  0
 14 36  1  0  0  0  0
 14 37  1  0  0  0  0
 17 38  1  0  0  0  0
 18 39  1  0  0  0  0
 19 40  1  0  0  0  0
 21 41  1  0  0  0  0
 23 42  1  0  0  0  0
 25 43  1  0  0  0  0
M  END
> <r_user_dG.exp>
-6.6626190630157

$$$$
48
  -OEChem-05162309453D
 Structure written by MMmdl.
 43 46  0     1  0  0  0  0  0999 V2000
    3.5962  -50.2382    7.2860 O   0  0  0  0  0  0  0  0  0  0  0  0
    2.9915  -49.1832    6.9785 C   0  0  0  0  0  0  0  0  0  0  0  0
    3.5468  -48.0563    6.9856 O   0  0  0  0  0  0  0  0  0  0  0  0
    1.5667  -49.2814    6.6034 C   0  0  0  0  0  0  0  0  0  0  0  0
   -0.3493  -50.4961    6.2933 C   0  0  0  0  0  0  0  0  0  0  0  0
   -1.3483  -51.4866    6.2008 C   0  0  0  0  0  0  0  0  0  0  0  0
   -2.6508  -51.1171    5.7985 C   0  0  0  0  0  0  0  0  0  0  0  0
   -2.9320  -49.7715    5.4886 C   0  0  0  0  0  0  0  0  0  0  0  0
   -1.9224  -48.7928    5.5781 C   0  0  0  0  0  0  0  0  0  0  0  0
   -0.6057  -49.1301    5.9783 C   0  0  0  0  0  0  0  0  0  0  0  0
    0.6128  -48.3833    6.1734 C   0  0  0  0  0  0  0  0  0  0  0  0
    0.8068  -46.9172    5.9622 C   0  0  0  0  0  0  0  0  0  0  0  0
    0.7034  -46.1229    7.2813 C   0  0  0  0  0  0  0  0  0  0  0  0
   -0.7224  -46.0877    7.8568 C   0  0  0  0  0  0  0  0  0  0  0  0
   -1.5391  -45.3745    6.9378 O   0  0  0  0  0  0  0  0  0  0  0  0
   -2.8810  -45.1822    7.1989 C   0  0  3  0  0  0  0  0  0  0  0  0
   -5.6349  -44.5517    7.4221 C   0  0  0  0  0  0  0  0  0  0  0  0
   -4.8882  -44.0528    6.3462 C   0  0  0  0  0  0  0  0  0  0  0  0
   -3.5272  -44.3675    6.2431 C   0  0  0  0  0  0  0  0  0  0  0  0
    0.9807  -50.5349    6.6696 N   0  0  0  0  0  0  0  0  0  0  0  0
   -4.5301  -46.7432   10.1164 C   0  0  0  0  0  0  0  0  0  0  0  0
   -5.5194  -46.0063    9.4887 N   0  0  0  0  0  0  0  0  0  0  0  0
   -5.0107  -45.3807    8.3736 C   0  0  0  0  0  0  0  0  0  0  0  0
   -3.6231  -45.7297    8.3012 C   0  0  0  0  0  0  0  0  0  0  0  0
   -3.3547  -46.5895    9.4315 C   0  0  0  0  0  0  0  0  0  0  0  0
    4.4539  -48.1514    7.2515 H   0  0  0  0  0  0  0  0  0  0  0  0
   -1.1203  -52.5160    6.4348 H   0  0  0  0  0  0  0  0  0  0  0  0
   -3.4285  -51.8632    5.7286 H   0  0  0  0  0  0  0  0  0  0  0  0
   -3.2952  -49.7561    4.4504 H   0  0  0  0  0  0  0  0  0  0  0  0
   -3.7398  -49.4542    6.1645 H   0  0  0  0  0  0  0  0  0  0  0  0
   -2.1565  -47.7664    5.3372 H   0  0  0  0  0  0  0  0  0  0  0  0
    1.8021  -46.7504    5.5246 H   0  0  0  0  0  0  0  0  0  0  0  0
    0.0352  -46.5536    5.2676 H   0  0  0  0  0  0  0  0  0  0  0  0
    1.3685  -46.5890    8.0232 H   0  0  0  0  0  0  0  0  0  0  0  0
    1.0304  -45.0895    7.0937 H   0  0  0  0  0  0  0  0  0  0  0  0
   -1.1027  -47.1125    7.9797 H   0  0  0  0  0  0  0  0  0  0  0  0
   -0.7210  -45.5778    8.8315 H   0  0  0  0  0  0  0  0  0  0  0  0
   -2.6400  -44.2924    7.7991 H   0  0  0  0  0  0  0  0  0  0  0  0
   -6.6811  -44.3022    7.5206 H   0  0  0  0  0  0  0  0  0  0  0  0
   -5.3594  -43.4293    5.6009 H   0  0  0  0  0  0  0  0  0  0  0  0
   -2.9579  -43.9776    5.4123 H   0  0  0  0  0  0  0  0  0  0  0  0
   -4.6640  -47.3433   11.0043 H   0  0  0  0  0  0  0  0  0  0  0  0
   -2.4025  -47.0296    9.6884 H   0  0  0  0  0  0  0  0  0  0  0  0
  1  2  2  0  0  0  0
  2  3  1  0  0  0  0
  2  4  1  0  0  0  0
  4 11  2  0  0  0  0
  4 20  1  0  0  0  0
  5  6  1  0  0  0  0
  5 10  1  0  0  0  0
  5 20  2  0  0  0  0
  6  7  2  0  0  0  0
  7  8  1  0  0  0  0
  8  9  1  0  0  0  0
  9 10  2  0  0  0  0
 10 11  1  0  0  0  0
 11 12  1  0  0  0  0
 12 13  1  0  0  0  0
 13 14  1  0  0  0  0
 14 15  1  0  0  0  0
 15 16  1  0  0  0  0
 16 19  1  0  0  0  0
 16 24  1  0  0  0  0
 17 18  1  0  0  0  0
 17 23  2  0  0  0  0
 18 19  2  0  0  0  0
 21 22  2  0  0  0  0
 21 25  1  0  0  0  0
 22 23  1  0  0  0  0
 23 24  1  0  0  0  0
 24 25  2  0  0  0  0
  3 26  1  0  0  0  0
  6 27  1  0  0  0  0
  7 28  1  0  0  0  0
  8 29  1  0  0  0  0
  8 30  1  0  0  0  0
  9 31  1  0  0  0  0
 12 32  1  0  0  0  0
 12 33  1  0  0  0  0
 13 34  1  0  0  0  0
 13 35  1  0  0  0  0
 14 36  1  0  0  0  0
 14 37  1  0  0  0  0
 16 38  1  0  0  0  0
 17 39  1  0  0  0  0
 18 40  1  0  0  0  0
 19 41  1  0  0  0  0
 21 42  1  0  0  0  0
 25 43  1  0  0  0  0
M  END
> <r_user_dG.exp>
-6.6626190630157

$$$$
48
  -OEChem-05162309453D
 Structure written by MMmdl.
 43 46  0     0  0  0  0  0  0999 V2000
    3.5962  -50.2382    7.2860 O   0  0  0  0  0  0  0  0  0  0  0  0
    2.9915  -49.1832    6.9785 C   0  0  0  0  0  0  0  0  0  0  0  0
    3.5468  -48.0563    6.9856 O   0  0  0  0  0  0  0  0  0  0  0  0
    1.5667  -49.2814    6.6034 C   0  0  0  0  0  0  0  0  0  0  0  0
   -0.3493  -50.4961    6.2933 C   0  0  0  0  0  0  0  0  0  0  0  0
   -1.3483  -51.4866    6.2008 C   0  0  0  0  0  0  0  0  0  0  0  0
   -2.6508  -51.1171    5.7985 C   0  0  0  0  0  0  0  0  0  0  0  0
   -2.9320  -49.7715    5.4886 C   0  0  0  0  0  0  0  0  0  0  0  0
   -1.9224  -48.7928    5.5781 C   0  0  0  0  0  0  0  0  0  0  0  0
   -0.6057  -49.1301    5.9783 C   0  0  0  0  0  0  0  0  0  0  0  0
    0.6128  -48.3833    6.1734 C   0  0  0  0  0  0  0  0  0  0  0  0
    0.8068  -46.9172    5.9622 C   0  0  0  0  0  0  0  0  0  0  0  0
    0.7034  -46.1229    7.2813 C   0  0  0  0  0  0  0  0  0  0  0  0
   -0.7224  -46.0877    7.8568 C   0  0  0  0  0  0  0  0  0  0  0  0
   -1.5391  -45.3745    6.9378 O   0  0  0  0  0  0  0  0  0  0  0  0
   -2.8810  -45.1822    7.1989 C   0  0  0  0  0  0  0  0  0  0  0  0
   -5.6349  -44.5517    7.4221 C   0  0  0  0  0  0  0  0  0  0  0  0
   -4.8882  -44.0528    6.3462 C   0  0  0  0  0  0  0  0  0  0  0  0
   -3.5272  -44.3675    6.2431 C   0  0  0  0  0  0  0  0  0  0  0  0
    0.9807  -50.5349    6.6696 N   0  0  0  0  0  0  0  0  0  0  0  0
   -4.5301  -46.7432   10.1164 C   0  0  0  0  0  0  0  0  0  0  0  0
   -5.5194  -46.0063    9.4887 N   0  0  0  0  0  0  0  0  0  0  0  0
   -5.0107  -45.3807    8.3736 C   0  0  0  0  0  0  0  0  0  0  0  0
   -3.6231  -45.7297    8.3012 C   0  0  0  0  0  0  0  0  0  0  0  0
   -3.3547  -46.5895    9.4315 C   0  0  0  0  0  0  0  0  0  0  0  0
    4.4539  -48.1514    7.2515 H   0  0  0  0  0  0  0  0  0  0  0  0
   -1.1203  -52.5160    6.4348 H   0  0  0  0  0  0  0  0  0  0  0  0
   -3.4285  -51.8632    5.7286 H   0  0  0  0  0  0  0  0  0  0  0  0
   -3.2952  -49.7561    4.4504 H   0  0  0  0  0  0  0  0  0  0  0  0
   -3.7398  -49.4542    6.1645 H   0  0  0  0  0  0  0  0  0  0  0  0
   -2.1565  -47.7664    5.3372 H   0  0  0  0  0  0  0  0  0  0  0  0
    1.8021  -46.7504    5.5246 H   0  0  0  0  0  0  0  0  0  0  0  0
    0.0352  -46.5536    5.2676 H   0  0  0  0  0  0  0  0  0  0  0  0
    1.3685  -46.5890    8.0232 H   0  0  0  0  0  0  0  0  0  0  0  0
    1.0304  -45.0895    7.0937 H   0  0  0  0  0  0  0  0  0  0  0  0
   -1.1027  -47.1125    7.9797 H   0  0  0  0  0  0  0  0  0  0  0  0
   -0.7210  -45.5778    8.8315 H   0  0  0  0  0  0  0  0  0  0  0  0
   -6.6811  -44.3022    7.5206 H   0  0  0  0  0  0  0  0  0  0  0  0
   -5.3706  -44.4163    5.4269 H   0  0  0  0  0  0  0  0  0  0  0  0
   -4.9600  -42.9560    6.3889 H   0  0  0  0  0  0  0  0  0  0  0  0
   -2.9579  -43.9776    5.4123 H   0  0  0  0  0  0  0  0  0  0  0  0
   -4.6640  -47.3433   11.0043 H   0  0  0  0  0  0  0  0  0  0  0  0
   -2.4025  -47.0296    9.6884 H   0  0  0  0  0  0  0  0  0  0  0  0
  1  2  2  0  0  0  0
  2  3  1  0  0  0  0
  2  4  1  0  0  0  0
  4 11  2  0  0  0  0
  4 20  1  0  0  0  0
  5  6  1  0  0  0  0
  5 10  1  0  0  0  0
  5 20  2  0  0  0  0
  6  7  2  0  0  0  0
  7  8  1  0  0  0  0
  8  9  1  0  0  0  0
  9 10  2  0  0  0  0
 10 11  1  0  0  0  0
 11 12  1  0  0  0  0
 12 13  1  0  0  0  0
 13 14  1  0  0  0  0
 14 15  1  0  0  0  0
 15 16  1  0  0  0  0
 16 19  2  0  0  0  0
 16 24  1  0  0  0  0
 17 18  1  0  0  0  0
 17 23  2  0  0  0  0
 18 19  1  0  0  0  0
 21 22  2  0  0  0  0
 21 25  1  0  0  0  0
 22 23  1  0  0  0  0
 23 24  1  0  0  0  0
 24 25  2  0  0  0  0
  3 26  1  0  0  0  0
  6 27  1  0  0  0  0
  7 28  1  0  0  0  0
  8 29  1  0  0  0  0
  8 30  1  0  0  0  0
  9 31  1  0  0  0  0
 12 32  1  0  0  0  0
 12 33  1  0  0  0  0
 13 34  1  0  0  0  0
 13 35  1  0  0  0  0
 14 36  1  0  0  0  0
 14 37  1  0  0  0  0
 17 38  1  0  0  0  0
 18 39  1  0  0  0  0
 18 40  1  0  0  0  0
 19 41  1  0  0  0  0
 21 42  1  0  0  0  0
 25 43  1  0  0  0  0
M  END
> <r_user_dG.exp>
-6.6626190630157

$$$$
48
  -OEChem-05162309453D
 Structure written by MMmdl.
 43 46  0     0  0  0  0  0  0999 V2000
    3.5962  -50.2382    7.2860 O   0  0  0  0  0  0  0  0  0  0  0  0
    2.9915  -49.1832    6.9785 C   0  0  0  0  0  0  0  0  0  0  0  0
    3.5468  -48.0563    6.9856 O   0  0  0  0  0  0  0  0  0  0  0  0
    1.5667  -49.2814    6.6034 C   0  0  0  0  0  0  0  0  0  0  0  0
   -0.3493  -50.4961    6.2933 C   0  0  0  0  0  0  0  0  0  0  0  0
   -1.3483  -51.4866    6.2008 C   0  0  0  0  0  0  0  0  0  0  0  0
   -2.6508  -51.1171    5.7985 C   0  0  0  0  0  0  0  0  0  0  0  0
   -2.9320  -49.7715    5.4886 C   0  0  0  0  0  0  0  0  0  0  0  0
   -1.9224  -48.7928    5.5781 C   0  0  0  0  0  0  0  0  0  0  0  0
   -0.6057  -49.1301    5.9783 C   0  0  0  0  0  0  0  0  0  0  0  0
    0.6128  -48.3833    6.1734 C   0  0  0  0  0  0  0  0  0  0  0  0
    0.8068  -46.9172    5.9622 C   0  0  0  0  0  0  0  0  0  0  0  0
    0.7034  -46.1229    7.2813 C   0  0  0  0  0  0  0  0  0  0  0  0
   -0.7224  -46.0877    7.8568 C   0  0  0  0  0  0  0  0  0  0  0  0
   -1.5391  -45.3745    6.9378 O   0  0  0  0  0  0  0  0  0  0  0  0
   -2.8810  -45.1822    7.1989 C   0  0  0  0  0  0  0  0  0  0  0  0
   -5.6349  -44.5517    7.4221 C   0  0  0  0  0  0  0  0  0  0  0  0
   -4.8882  -44.0528    6.3462 C   0  0  0  0  0  0  0  0  0  0  0  0
   -3.5272  -44.3675    6.2431 C   0  0  0  0  0  0  0  0  0  0  0  0
    0.9807  -50.5349    6.6696 N   0  0  0  0  0  0  0  0  0  0  0  0
   -4.5301  -46.7432   10.1164 C   0  0  0  0  0  0  0  0  0  0  0  0
   -5.5194  -46.0063    9.4887 N   0  0  0  0  0  0  0  0  0  0  0  0
   -5.0107  -45.3807    8.3736 C   0  0  0  0  0  0  0  0  0  0  0  0
   -3.6231  -45.7297    8.3012 C   0  0  0  0  0  0  0  0  0  0  0  0
   -3.3547  -46.5895    9.4315 C   0  0  0  0  0  0  0  0  0  0  0  0
    4.4539  -48.1514    7.2515 H   0  0  0  0  0  0  0  0  0  0  0  0
   -1.1203  -52.5160    6.4348 H   0  0  0  0  0  0  0  0  0  0  0  0
   -3.4285  -51.8632    5.7286 H   0  0  0  0  0  0  0  0  0  0  0  0
   -3.2952  -49.7561    4.4504 H   0  0  0  0  0  0  0  0  0  0  0  0
   -3.7398  -49.4542    6.1645 H   0  0  0  0  0  0  0  0  0  0  0  0
   -2.1565  -47.7664    5.3372 H   0  0  0  0  0  0  0  0  0  0  0  0
    1.8021  -46.7504    5.5246 H   0  0  0  0  0  0  0  0  0  0  0  0
    0.0352  -46.5536    5.2676 H   0  0  0  0  0  0  0  0  0  0  0  0
    1.3685  -46.5890    8.0232 H   0  0  0  0  0  0  0  0  0  0  0  0
    1.0304  -45.0895    7.0937 H   0  0  0  0  0  0  0  0  0  0  0  0
   -1.1027  -47.1125    7.9797 H   0  0  0  0  0  0  0  0  0  0  0  0
   -0.7210  -45.5778    8.8315 H   0  0  0  0  0  0  0  0  0  0  0  0
   -6.6811  -44.3022    7.5206 H   0  0  0  0  0  0  0  0  0  0  0  0
   -5.3594  -43.4293    5.6009 H   0  0  0  0  0  0  0  0  0  0  0  0
   -2.9873  -43.4091    6.2373 H   0  0  0  0  0  0  0  0  0  0  0  0
   -3.3976  -44.8673    5.2718 H   0  0  0  0  0  0  0  0  0  0  0  0
   -4.6640  -47.3433   11.0043 H   0  0  0  0  0  0  0  0  0  0  0  0
   -2.4025  -47.0296    9.6884 H   0  0  0  0  0  0  0  0  0  0  0  0
  1  2  2  0  0  0  0
  2  3  1  0  0  0  0
  2  4  1  0  0  0  0
  4 11  2  0  0  0  0
  4 20  1  0  0  0  0
  5  6  1  0  0  0  0
  5 10  1  0  0  0  0
  5 20  2  0  0  0  0
  6  7  2  0  0  0  0
  7  8  1  0  0  0  0
  8  9  1  0  0  0  0
  9 10  2  0  0  0  0
 10 11  1  0  0  0  0
 11 12  1  0  0  0  0
 12 13  1  0  0  0  0
 13 14  1  0  0  0  0
 14 15  1  0  0  0  0
 15 16  1  0  0  0  0
 16 19  1  0  0  0  0
 16 24  2  0  0  0  0
 17 18  2  0  0  0  0
 17 23  1  0  0  0  0
 18 19  1  0  0  0  0
 21 22  1  0  0  0  0
 21 25  2  0  0  0  0
 22 23  2  0  0  0  0
 23 24  1  0  0  0  0
 24 25  1  0  0  0  0
  3 26  1  0  0  0  0
  6 27  1  0  0  0  0
  7 28  1  0  0  0  0
  8 29  1  0  0  0  0
  8 30  1  0  0  0  0
  9 31  1  0  0  0  0
 12 32  1  0  0  0  0
 12 33  1  0  0  0  0
 13 34  1  0  0  0  0
 13 35  1  0  0  0  0
 14 36  1  0  0  0  0
 14 37  1  0  0  0  0
 17 38  1  0  0  0  0
 18 39  1  0  0  0  0
 19 40  1  0  0  0  0
 19 41  1  0  0  0  0
 21 42  1  0  0  0  0
 25 43  1  0  0  0  0
M  END
> <r_user_dG.exp>
-6.6626190630157

$$$$
48
  -OEChem-05162309453D
 Structure written by MMmdl.
 43 46  0     0  0  0  0  0  0999 V2000
    3.5962  -50.2382    7.2860 O   0  0  0  0  0  0  0  0  0  0  0  0
    2.9915  -49.1832    6.9785 C   0  0  0  0  0  0  0  0  0  0  0  0
    3.5468  -48.0563    6.9856 O   0  0  0  0  0  0  0  0  0  0  0  0
    1.5667  -49.2814    6.6034 C   0  0  0  0  0  0  0  0  0  0  0  0
   -0.3493  -50.4961    6.2933 C   0  0  0  0  0  0  0  0  0  0  0  0
   -1.3483  -51.4866    6.2008 C   0  0  0  0  0  0  0  0  0  0  0  0
   -2.6508  -51.1171    5.7985 C   0  0  0  0  0  0  0  0  0  0  0  0
   -2.9320  -49.7715    5.4886 C   0  0  0  0  0  0  0  0  0  0  0  0
   -1.9224  -48.7928    5.5781 C   0  0  0  0  0  0  0  0  0  0  0  0
   -0.6057  -49.1301    5.9783 C   0  0  0  0  0  0  0  0  0  0  0  0
    0.6128  -48.3833    6.1734 C   0  0  0  0  0  0  0  0  0  0  0  0
    0.8068  -46.9172    5.9622 C   0  0  0  0  0  0  0  0  0  0  0  0
    0.7034  -46.1229    7.2813 C   0  0  0  0  0  0  0  0  0  0  0  0
   -0.7224  -46.0877    7.8568 C   0  0  0  0  0  0  0  0  0  0  0  0
   -1.5391  -45.3745    6.9378 O   0  0  0  0  0  0  0  0  0  0  0  0
   -2.8810  -45.1822    7.1989 C   0  0  0  0  0  0  0  0  0  0  0  0
   -5.6349  -44.5517    7.4221 C   0  0  0  0  0  0  0  0  0  0  0  0
   -4.8882  -44.0528    6.3462 C   0  0  0  0  0  0  0  0  0  0  0  0
   -3.5272  -44.3675    6.2431 C   0  0  0  0  0  0  0  0  0  0  0  0
    0.9807  -50.5349    6.6696 N   0  0  0  0  0  0  0  0  0  0  0  0
   -4.5301  -46.7432   10.1164 C   0  0  0  0  0  0  0  0  0  0  0  0
   -5.5194  -46.0063    9.4887 N   0  0  0  0  0  0  0  0  0  0  0  0
   -5.0107  -45.3807    8.3736 C   0  0  0  0  0  0  0  0  0  0  0  0
   -3.6231  -45.7297    8.3012 C   0  0  0  0  0  0  0  0  0  0  0  0
   -3.3547  -46.5895    9.4315 C   0  0  0  0  0  0  0  0  0  0  0  0
    4.4539  -48.1514    7.2515 H   0  0  0  0  0  0  0  0  0  0  0  0
   -1.1203  -52.5160    6.4348 H   0  0  0  0  0  0  0  0  0  0  0  0
   -3.4285  -51.8632    5.7286 H   0  0  0  0  0  0  0  0  0  0  0  0
   -3.2952  -49.7561    4.4504 H   0  0  0  0  0  0  0  0  0  0  0  0
   -3.7398  -49.4542    6.1645 H   0  0  0  0  0  0  0  0  0  0  0  0
   -2.1565  -47.7664    5.3372 H   0  0  0  0  0  0  0  0  0  0  0  0
    1.8021  -46.7504    5.5246 H   0  0  0  0  0  0  0  0  0  0  0  0
    0.0352  -46.5536    5.2676 H   0  0  0  0  0  0  0  0  0  0  0  0
    1.3685  -46.5890    8.0232 H   0  0  0  0  0  0  0  0  0  0  0  0
    1.0304  -45.0895    7.0937 H   0  0  0  0  0  0  0  0  0  0  0  0
   -1.1027  -47.1125    7.9797 H   0  0  0  0  0  0  0  0  0  0  0  0
   -0.7210  -45.5778    8.8315 H   0  0  0  0  0  0  0  0  0  0  0  0
   -6.0319  -43.6822    7.9666 H   0  0  0  0  0  0  0  0  0  0  0  0
   -6.4683  -45.1277    6.9935 H   0  0  0  0  0  0  0  0  0  0  0  0
   -5.3594  -43.4293    5.6009 H   0  0  0  0  0  0  0  0  0  0  0  0
   -2.9579  -43.9776    5.4123 H   0  0  0  0  0  0  0  0  0  0  0  0
   -4.6640  -47.3433   11.0043 H   0  0  0  0  0  0  0  0  0  0  0  0
   -2.4025  -47.0296    9.6884 H   0  0  0  0  0  0  0  0  0  0  0  0
  1  2  2  0  0  0  0
  2  3  1  0  0  0  0
  2  4  1  0  0  0  0
  4 11  2  0  0  0  0
  4 20  1  0  0  0  0
  5  6  1  0  0  0  0
  5 10  1  0  0  0  0
  5 20  2  0  0  0  0
  6  7  2  0  0  0  0
  7  8  1  0  0  0  0
  8  9  1  0  0  0  0
  9 10  2  0  0  0  0
 10 11  1  0  0  0  0
 11 12  1  0  0  0  0
 12 13  1  0  0  0  0
 13 14  1  0  0  0  0
 14 15  1  0  0  0  0
 15 16  1  0  0  0  0
 16 19  1  0  0  0  0
 16 24  2  0  0  0  0
 17 18  1  0  0  0  0
 17 23  1  0  0  0  0
 18 19  2  0  0  0  0
 21 22  1  0  0  0  0
 21 25  2  0  0  0  0
 22 23  2  0  0  0  0
 23 24  1  0  0  0  0
 24 25  1  0  0  0  0
  3 26  1  0  0  0  0
  6 27  1  0  0  0  0
  7 28  1  0  0  0  0
  8 29  1  0  0  0  0
  8 30  1  0  0  0  0
  9 31  1  0  0  0  0
 12 32  1  0  0  0  0
 12 33  1  0  0  0  0
 13 34  1  0  0  0  0
 13 35  1  0  0  0  0
 14 36  1  0  0  0  0
 14 37  1  0  0  0  0
 17 38  1  0  0  0  0
 17 39  1  0  0  0  0
 18 40  1  0  0  0  0
 19 41  1  0  0  0  0
 21 42  1  0  0  0  0
 25 43  1  0  0  0  0
M  END
> <r_user_dG.exp>
-6.6626190630157

$$$$
48
  -OEChem-05162309453D
 Structure written by MMmdl.
 43 46  0     1  0  0  0  0  0999 V2000
    3.5962  -50.2382    7.2860 O   0  0  0  0  0  0  0  0  0  0  0  0
    2.9915  -49.1832    6.9785 C   0  0  0  0  0  0  0  0  0  0  0  0
    3.5468  -48.0563    6.9856 O   0  0  0  0  0  0  0  0  0  0  0  0
    1.5667  -49.2814    6.6034 C   0  0  0  0  0  0  0  0  0  0  0  0
   -0.3493  -50.4961    6.2933 C   0  0  0  0  0  0  0  0  0  0  0  0
   -1.3483  -51.4866    6.2008 C   0  0  0  0  0  0  0  0  0  0  0  0
   -2.6508  -51.1171    5.7985 C   0  0  0  0  0  0  0  0  0  0  0  0
   -2.9320  -49.7715    5.4886 C   0  0  0  0  0  0  0  0  0  0  0  0
   -1.9224  -48.7928    5.5781 C   0  0  0  0  0  0  0  0  0  0  0  0
   -0.6057  -49.1301    5.9783 C   0  0  0  0  0  0  0  0  0  0  0  0
    0.6128  -48.3833    6.1734 C   0  0  0  0  0  0  0  0  0  0  0  0
    0.8068  -46.9172    5.9622 C   0  0  0  0  0  0  0  0  0  0  0  0
    0.7034  -46.1229    7.2813 C   0  0  0  0  0  0  0  0  0  0  0  0
   -0.7224  -46.0877    7.8568 C   0  0  0  0  0  0  0  0  0  0  0  0
   -1.5391  -45.3745    6.9378 O   0  0  0  0  0  0  0  0  0  0  0  0
   -2.8810  -45.1822    7.1989 C   0  0  0  0  0  0  0  0  0  0  0  0
   -5.6349  -44.5517    7.4221 C   0  0  0  0  0  0  0  0  0  0  0  0
   -4.8882  -44.0528    6.3462 C   0  0  0  0  0  0  0  0  0  0  0  0
   -3.5272  -44.3675    6.2431 C   0  0  0  0  0  0  0  0  0  0  0  0
    0.9807  -50.5349    6.6696 N   0  0  0  0  0  0  0  0  0  0  0  0
   -4.5301  -46.7432   10.1164 C   0  0  0  0  0  0  0  0  0  0  0  0
   -5.5194  -46.0063    9.4887 N   0  0  0  0  0  0  0  0  0  0  0  0
   -5.0107  -45.3807    8.3736 C   0  0  0  0  0  0  0  0  0  0  0  0
   -3.6231  -45.7297    8.3012 C   0  0  3  0  0  0  0  0  0  0  0  0
   -3.3547  -46.5895    9.4315 C   0  0  0  0  0  0  0  0  0  0  0  0
    4.4539  -48.1514    7.2515 H   0  0  0  0  0  0  0  0  0  0  0  0
   -1.1203  -52.5160    6.4348 H   0  0  0  0  0  0  0  0  0  0  0  0
   -2.8862  -51.7069    4.9003 H   0  0  0  0  0  0  0  0  0  0  0  0
   -3.3300  -51.4048    6.6145 H   0  0  0  0  0  0  0  0  0  0  0  0
   -3.9277  -49.4886    5.1805 H   0  0  0  0  0  0  0  0  0  0  0  0
   -2.1565  -47.7664    5.3372 H   0  0  0  0  0  0  0  0  0  0  0  0
    1.8021  -46.7504    5.5246 H   0  0  0  0  0  0  0  0  0  0  0  0
    0.0352  -46.5536    5.2676 H   0  0  0  0  0  0  0  0  0  0  0  0
    1.3685  -46.5890    8.0232 H   0  0  0  0  0  0  0  0  0  0  0  0
    1.0304  -45.0895    7.0937 H   0  0  0  0  0  0  0  0  0  0  0  0
   -1.1027  -47.1125    7.9797 H   0  0  0  0  0  0  0  0  0  0  0  0
   -0.7210  -45.5778    8.8315 H   0  0  0  0  0  0  0  0  0  0  0  0
   -6.6811  -44.3022    7.5206 H   0  0  0  0  0  0  0  0  0  0  0  0
   -5.3594  -43.4293    5.6009 H   0  0  0  0  0  0  0  0  0  0  0  0
   -2.9579  -43.9776    5.4123 H   0  0  0  0  0  0  0  0  0  0  0  0
   -4.6640  -47.3433   11.0043 H   0  0  0  0  0  0  0  0  0  0  0  0
   -3.3694  -44.8493    8.9100 H   0  0  0  0  0  0  0  0  0  0  0  0
   -2.4025  -47.0296    9.6884 H   0  0  0  0  0  0  0  0  0  0  0  0
  1  2  2  0  0  0  0
  2  3  1  0  0  0  0
  2  4  1  0  0  0  0
  4 11  1  0  0  0  0
  4 20  2  0  0  0  0
  5  6  2  0  0  0  0
  5 10  1  0  0  0  0
  5 20  1  0  0  0  0
  6  7  1  0  0  0  0
  7  8  1  0  0  0  0
  8  9  2  0  0  0  0
  9 10  1  0  0  0  0
 10 11  2  0  0  0  0
 11 12  1  0  0  0  0
 12 13  1  0  0  0  0
 13 14  1  0  0  0  0
 14 15  1  0  0  0  0
 15 16  1  0  0  0  0
 16 19  2  0  0  0  0
 16 24  1  0  0  0  0
 17 18  2  0  0  0  0
 17 23  1  0  0  0  0
 18 19  1  0  0  0  0
 21 22  1  0  0  0  0
 21 25  2  0  0  0  0
 22 23  2  0  0  0  0
 23 24  1  0  0  0  0
 24 25  1  0  0  0  0
  3 26  1  0  0  0  0
  6 27  1  0  0  0  0
  7 28  1  0  0  0  0
  7 29  1  0  0  0  0
  8 30  1  0  0  0  0
  9 31  1  0  0  0  0
 12 32  1  0  0  0  0
 12 33  1  0  0  0  0
 13 34  1  0  0  0  0
 13 35  1  0  0  0  0
 14 36  1  0  0  0  0
 14 37  1  0  0  0  0
 17 38  1  0  0  0  0
 18 39  1  0  0  0  0
 19 40  1  0  0  0  0
 21 41  1  0  0  0  0
 24 42  1  0  0  0  0
 25 43  1  0  0  0  0
M  END
> <r_user_dG.exp>
-6.6626190630157

$$$$
48
  -OEChem-05162309453D
 Structure written by MMmdl.
 43 46  0     1  0  0  0  0  0999 V2000
    3.5962  -50.2382    7.2860 O   0  0  0  0  0  0  0  0  0  0  0  0
    2.9915  -49.1832    6.9785 C   0  0  0  0  0  0  0  0  0  0  0  0
    3.5468  -48.0563    6.9856 O   0  0  0  0  0  0  0  0  0  0  0  0
    1.5667  -49.2814    6.6034 C   0  0  0  0  0  0  0  0  0  0  0  0
   -0.3493  -50.4961    6.2933 C   0  0  0  0  0  0  0  0  0  0  0  0
   -1.3483  -51.4866    6.2008 C   0  0  0  0  0  0  0  0  0  0  0  0
   -2.6508  -51.1171    5.7985 C   0  0  0  0  0  0  0  0  0  0  0  0
   -2.9320  -49.7715    5.4886 C   0  0  0  0  0  0  0  0  0  0  0  0
   -1.9224  -48.7928    5.5781 C   0  0  0  0  0  0  0  0  0  0  0  0
   -0.6057  -49.1301    5.9783 C   0  0  0  0  0  0  0  0  0  0  0  0
    0.6128  -48.3833    6.1734 C   0  0  0  0  0  0  0  0  0  0  0  0
    0.8068  -46.9172    5.9622 C   0  0  0  0  0  0  0  0  0  0  0  0
    0.7034  -46.1229    7.2813 C   0  0  0  0  0  0  0  0  0  0  0  0
   -0.7224  -46.0877    7.8568 C   0  0  0  0  0  0  0  0  0  0  0  0
   -1.5391  -45.3745    6.9378 O   0  0  0  0  0  0  0  0  0  0  0  0
   -2.8810  -45.1822    7.1989 C   0  0  0  0  0  0  0  0  0  0  0  0
   -5.6349  -44.5517    7.4221 C   0  0  0  0  0  0  0  0  0  0  0  0
   -4.8882  -44.0528    6.3462 C   0  0  0  0  0  0  0  0  0  0  0  0
   -3.5272  -44.3675    6.2431 C   0  0  0  0  0  0  0  0  0  0  0  0
    0.9807  -50.5349    6.6696 N   0  0  0  0  0  0  0  0  0  0  0  0
   -4.5301  -46.7432   10.1164 C   0  0  0  0  0  0  0  0  0  0  0  0
   -5.5194  -46.0063    9.4887 N   0  0  0  0  0  0  0  0  0  0  0  0
   -5.0107  -45.3807    8.3736 C   0  0  3  0  0  0  0  0  0  0  0  0
   -3.6231  -45.7297    8.3012 C   0  0  0  0  0  0  0  0  0  0  0  0
   -3.3547  -46.5895    9.4315 C   0  0  0  0  0  0  0  0  0  0  0  0
    4.4539  -48.1514    7.2515 H   0  0  0  0  0  0  0  0  0  0  0  0
   -1.1203  -52.5160    6.4348 H   0  0  0  0  0  0  0  0  0  0  0  0
   -2.8862  -51.7069    4.9003 H   0  0  0  0  0  0  0  0  0  0  0  0
   -3.3300  -51.4048    6.6145 H   0  0  0  0  0  0  0  0  0  0  0  0
   -3.9277  -49.4886    5.1805 H   0  0  0  0  0  0  0  0  0  0  0  0
   -2.1565  -47.7664    5.3372 H   0  0  0  0  0  0  0  0  0  0  0  0
    1.8021  -46.7504    5.5246 H   0  0  0  0  0  0  0  0  0  0  0  0
    0.0352  -46.5536    5.2676 H   0  0  0  0  0  0  0  0  0  0  0  0
    1.3685  -46.5890    8.0232 H   0  0  0  0  0  0  0  0  0  0  0  0
    1.0304  -45.0895    7.0937 H   0  0  0  0  0  0  0  0  0  0  0  0
   -1.1027  -47.1125    7.9797 H   0  0  0  0  0  0  0  0  0  0  0  0
   -0.7210  -45.5778    8.8315 H   0  0  0  0  0  0  0  0  0  0  0  0
   -6.6811  -44.3022    7.5206 H   0  0  0  0  0  0  0  0  0  0  0  0
   -5.3594  -43.4293    5.6009 H   0  0  0  0  0  0  0  0  0  0  0  0
   -2.9579  -43.9776    5.4123 H   0  0  0  0  0  0  0  0  0  0  0  0
   -4.6640  -47.3433   11.0043 H   0  0  0  0  0  0  0  0  0  0  0  0
   -4.7593  -44.4984    8.9806 H   0  0  0  0  0  0  0  0  0  0  0  0
   -2.4025  -47.0296    9.6884 H   0  0  0  0  0  0  0  0  0  0  0  0
  1  2  2  0  0  0  0
  2  3  1  0  0  0  0
  2  4  1  0  0  0  0
  4 11  1  0  0  0  0
  4 20  2  0  0  0  0
  5  6  2  0  0  0  0
  5 10  1  0  0  0  0
  5 20  1  0  0  0  0
  6  7  1  0  0  0  0
  7  8  1  0  0  0  0
  8  9  2  0  0  0  0
  9 10  1  0  0  0  0
 10 11  2  0  0  0  0
 11 12  1  0  0  0  0
 12 13  1  0  0  0  0
 13 14  1  0  0  0  0
 14 15  1  0  0  0  0
 15 16  1  0  0  0  0
 16 19  2  0  0  0  0
 16 24  1  0  0  0  0
 17 18  2  0  0  0  0
 17 23  1  0  0  0  0
 18 19  1  0  0  0  0
 21 22  2  0  0  0  0
 21 25  1  0  0  0  0
 22 23  1  0  0  0  0
 23 24  1  0  0  0  0
 24 25  2  0  0  0  0
  3 26  1  0  0  0  0
  6 27  1  0  0  0  0
  7 28  1  0  0  0  0
  7 29  1  0  0  0  0
  8 30  1  0  0  0  0
  9 31  1  0  0  0  0
 12 32  1  0  0  0  0
 12 33  1  0  0  0  0
 13 34  1  0  0  0  0
 13 35  1  0  0  0  0
 14 36  1  0  0  0  0
 14 37  1  0  0  0  0
 17 38  1  0  0  0  0
 18 39  1  0  0  0  0
 19 40  1  0  0  0  0
 21 41  1  0  0  0  0
 23 42  1  0  0  0  0
 25 43  1  0  0  0  0
M  END
> <r_user_dG.exp>
-6.6626190630157

$$$$
48
  -OEChem-05162309453D
 Structure written by MMmdl.
 43 46  0     1  0  0  0  0  0999 V2000
    3.5962  -50.2382    7.2860 O   0  0  0  0  0  0  0  0  0  0  0  0
    2.9915  -49.1832    6.9785 C   0  0  0  0  0  0  0  0  0  0  0  0
    3.5468  -48.0563    6.9856 O   0  0  0  0  0  0  0  0  0  0  0  0
    1.5667  -49.2814    6.6034 C   0  0  0  0  0  0  0  0  0  0  0  0
   -0.3493  -50.4961    6.2933 C   0  0  0  0  0  0  0  0  0  0  0  0
   -1.3483  -51.4866    6.2008 C   0  0  0  0  0  0  0  0  0  0  0  0
   -2.6508  -51.1171    5.7985 C   0  0  0  0  0  0  0  0  0  0  0  0
   -2.9320  -49.7715    5.4886 C   0  0  0  0  0  0  0  0  0  0  0  0
   -1.9224  -48.7928    5.5781 C   0  0  0  0  0  0  0  0  0  0  0  0
   -0.6057  -49.1301    5.9783 C   0  0  0  0  0  0  0  0  0  0  0  0
    0.6128  -48.3833    6.1734 C   0  0  0  0  0  0  0  0  0  0  0  0
    0.8068  -46.9172    5.9622 C   0  0  0  0  0  0  0  0  0  0  0  0
    0.7034  -46.1229    7.2813 C   0  0  0  0  0  0  0  0  0  0  0  0
   -0.7224  -46.0877    7.8568 C   0  0  0  0  0  0  0  0  0  0  0  0
   -1.5391  -45.3745    6.9378 O   0  0  0  0  0  0  0  0  0  0  0  0
   -2.8810  -45.1822    7.1989 C   0  0  3  0  0  0  0  0  0  0  0  0
   -5.6349  -44.5517    7.4221 C   0  0  0  0  0  0  0  0  0  0  0  0
   -4.8882  -44.0528    6.3462 C   0  0  0  0  0  0  0  0  0  0  0  0
   -3.5272  -44.3675    6.2431 C   0  0  0  0  0  0  0  0  0  0  0  0
    0.9807  -50.5349    6.6696 N   0  0  0  0  0  0  0  0  0  0  0  0
   -4.5301  -46.7432   10.1164 C   0  0  0  0  0  0  0  0  0  0  0  0
   -5.5194  -46.0063    9.4887 N   0  0  0  0  0  0  0  0  0  0  0  0
   -5.0107  -45.3807    8.3736 C   0  0  0  0  0  0  0  0  0  0  0  0
   -3.6231  -45.7297    8.3012 C   0  0  0  0  0  0  0  0  0  0  0  0
   -3.3547  -46.5895    9.4315 C   0  0  0  0  0  0  0  0  0  0  0  0
    4.4539  -48.1514    7.2515 H   0  0  0  0  0  0  0  0  0  0  0  0
   -1.1203  -52.5160    6.4348 H   0  0  0  0  0  0  0  0  0  0  0  0
   -2.8862  -51.7069    4.9003 H   0  0  0  0  0  0  0  0  0  0  0  0
   -3.3300  -51.4048    6.6145 H   0  0  0  0  0  0  0  0  0  0  0  0
   -3.9277  -49.4886    5.1805 H   0  0  0  0  0  0  0  0  0  0  0  0
   -2.1565  -47.7664    5.3372 H   0  0  0  0  0  0  0  0  0  0  0  0
    1.8021  -46.7504    5.5246 H   0  0  0  0  0  0  0  0  0  0  0  0
    0.0352  -46.5536    5.2676 H   0  0  0  0  0  0  0  0  0  0  0  0
    1.3685  -46.5890    8.0232 H   0  0  0  0  0  0  0  0  0  0  0  0
    1.0304  -45.0895    7.0937 H   0  0  0  0  0  0  0  0  0  0  0  0
   -1.1027  -47.1125    7.9797 H   0  0  0  0  0  0  0  0  0  0  0  0
   -0.7210  -45.5778    8.8315 H   0  0  0  0  0  0  0  0  0  0  0  0
   -2.6400  -44.2924    7.7991 H   0  0  0  0  0  0  0  0  0  0  0  0
   -6.6811  -44.3022    7.5206 H   0  0  0  0  0  0  0  0  0  0  0  0
   -5.3594  -43.4293    5.6009 H   0  0  0  0  0  0  0  0  0  0  0  0
   -2.9579  -43.9776    5.4123 H   0  0  0  0  0  0  0  0  0  0  0  0
   -4.6640  -47.3433   11.0043 H   0  0  0  0  0  0  0  0  0  0  0  0
   -2.4025  -47.0296    9.6884 H   0  0  0  0  0  0  0  0  0  0  0  0
  1  2  2  0  0  0  0
  2  3  1  0  0  0  0
  2  4  1  0  0  0  0
  4 11  1  0  0  0  0
  4 20  2  0  0  0  0
  5  6  2  0  0  0  0
  5 10  1  0  0  0  0
  5 20  1  0  0  0  0
  6  7  1  0  0  0  0
  7  8  1  0  0  0  0
  8  9  2  0  0  0  0
  9 10  1  0  0  0  0
 10 11  2  0  0  0  0
 11 12  1  0  0  0  0
 12 13  1  0  0  0  0
 13 14  1  0  0  0  0
 14 15  1  0  0  0  0
 15 16  1  0  0  0  0
 16 19  1  0  0  0  0
 16 24  1  0  0  0  0
 17 18  1  0  0  0  0
 17 23  2  0  0  0  0
 18 19  2  0  0  0  0
 21 22  2  0  0  0  0
 21 25  1  0  0  0  0
 22 23  1  0  0  0  0
 23 24  1  0  0  0  0
 24 25  2  0  0  0  0
  3 26  1  0  0  0  0
  6 27  1  0  0  0  0
  7 28  1  0  0  0  0
  7 29  1  0  0  0  0
  8 30  1  0  0  0  0
  9 31  1  0  0  0  0
 12 32  1  0  0  0  0
 12 33  1  0  0  0  0
 13 34  1  0  0  0  0
 13 35  1  0  0  0  0
 14 36  1  0  0  0  0
 14 37  1  0  0  0  0
 16 38  1  0  0  0  0
 17 39  1  0  0  0  0
 18 40  1  0  0  0  0
 19 41  1  0  0  0  0
 21 42  1  0  0  0  0
 25 43  1  0  0  0  0
M  END
> <r_user_dG.exp>
-6.6626190630157

$$$$
48
  -OEChem-05162309453D
 Structure written by MMmdl.
 43 46  0     0  0  0  0  0  0999 V2000
    3.5962  -50.2382    7.2860 O   0  0  0  0  0  0  0  0  0  0  0  0
    2.9915  -49.1832    6.9785 C   0  0  0  0  0  0  0  0  0  0  0  0
    3.5468  -48.0563    6.9856 O   0  0  0  0  0  0  0  0  0  0  0  0
    1.5667  -49.2814    6.6034 C   0  0  0  0  0  0  0  0  0  0  0  0
   -0.3493  -50.4961    6.2933 C   0  0  0  0  0  0  0  0  0  0  0  0
   -1.3483  -51.4866    6.2008 C   0  0  0  0  0  0  0  0  0  0  0  0
   -2.6508  -51.1171    5.7985 C   0  0  0  0  0  0  0  0  0  0  0  0
   -2.9320  -49.7715    5.4886 C   0  0  0  0  0  0  0  0  0  0  0  0
   -1.9224  -48.7928    5.5781 C   0  0  0  0  0  0  0  0  0  0  0  0
   -0.6057  -49.1301    5.9783 C   0  0  0  0  0  0  0  0  0  0  0  0
    0.6128  -48.3833    6.1734 C   0  0  0  0  0  0  0  0  0  0  0  0
    0.8068  -46.9172    5.9622 C   0  0  0  0  0  0  0  0  0  0  0  0
    0.7034  -46.1229    7.2813 C   0  0  0  0  0  0  0  0  0  0  0  0
   -0.7224  -46.0877    7.8568 C   0  0  0  0  0  0  0  0  0  0  0  0
   -1.5391  -45.3745    6.9378 O   0  0  0  0  0  0  0  0  0  0  0  0
   -2.8810  -45.1822    7.1989 C   0  0  0  0  0  0  0  0  0  0  0  0
   -5.6349  -44.5517    7.4221 C   0  0  0  0  0  0  0  0  0  0  0  0
   -4.8882  -44.0528    6.3462 C   0  0  0  0  0  0  0  0  0  0  0  0
   -3.5272  -44.3675    6.2431 C   0  0  0  0  0  0  0  0  0  0  0  0
    0.9807  -50.5349    6.6696 N   0  0  0  0  0  0  0  0  0  0  0  0
   -4.5301  -46.7432   10.1164 C   0  0  0  0  0  0  0  0  0  0  0  0
   -5.5194  -46.0063    9.4887 N   0  0  0  0  0  0  0  0  0  0  0  0
   -5.0107  -45.3807    8.3736 C   0  0  0  0  0  0  0  0  0  0  0  0
   -3.6231  -45.7297    8.3012 C   0  0  0  0  0  0  0  0  0  0  0  0
   -3.3547  -46.5895    9.4315 C   0  0  0  0  0  0  0  0  0  0  0  0
    4.4539  -48.1514    7.2515 H   0  0  0  0  0  0  0  0  0  0  0  0
   -1.1203  -52.5160    6.4348 H   0  0  0  0  0  0  0  0  0  0  0  0
   -2.8862  -51.7069    4.9003 H   0  0  0  0  0  0  0  0  0  0  0  0
   -3.3300  -51.4048    6.6145 H   0  0  0  0  0  0  0  0  0  0  0  0
   -3.9277  -49.4886    5.1805 H   0  0  0  0  0  0  0  0  0  0  0  0
   -2.1565  -47.7664    5.3372 H   0  0  0  0  0  0  0  0  0  0  0  0
    1.8021  -46.7504    5.5246 H   0  0  0  0  0  0  0  0  0  0  0  0
    0.0352  -46.5536    5.2676 H   0  0  0  0  0  0  0  0  0  0  0  0
    1.3685  -46.5890    8.0232 H   0  0  0  0  0  0  0  0  0  0  0  0
    1.0304  -45.0895    7.0937 H   0  0  0  0  0  0  0  0  0  0  0  0
   -1.1027  -47.1125    7.9797 H   0  0  0  0  0  0  0  0  0  0  0  0
   -0.7210  -45.5778    8.8315 H   0  0  0  0  0  0  0  0  0  0  0  0
   -6.6811  -44.3022    7.5206 H   0  0  0  0  0  0  0  0  0  0  0  0
   -5.3706  -44.4163    5.4269 H   0  0  0  0  0  0  0  0  0  0  0  0
   -4.9600  -42.9560    6.3889 H   0  0  0  0  0  0  0  0  0  0  0  0
   -2.9579  -43.9776    5.4123 H   0  0  0  0  0  0  0  0  0  0  0  0
   -4.6640  -47.3433   11.0043 H   0  0  0  0  0  0  0  0  0  0  0  0
   -2.4025  -47.0296    9.6884 H   0  0  0  0  0  0  0  0  0  0  0  0
  1  2  2  0  0  0  0
  2  3  1  0  0  0  0
  2  4  1  0  0  0  0
  4 11  1  0  0  0  0
  4 20  2  0  0  0  0
  5  6  2  0  0  0  0
  5 10  1  0  0  0  0
  5 20  1  0  0  0  0
  6  7  1  0  0  0  0
  7  8  1  0  0  0  0
  8  9  2  0  0  0  0
  9 10  1  0  0  0  0
 10 11  2  0  0  0  0
 11 12  1  0  0  0  0
 12 13  1  0  0  0  0
 13 14  1  0  0  0  0
 14 15  1  0  0  0  0
 15 16  1  0  0  0  0
 16 19  2  0  0  0  0
 16 24  1  0  0  0  0
 17 18  1  0  0  0  0
 17 23  2  0  0  0  0
 18 19  1  0  0  0  0
 21 22  2  0  0  0  0
 21 25  1  0  0  0  0
 22 23  1  0  0  0  0
 23 24  1  0  0  0  0
 24 25  2  0  0  0  0
  3 26  1  0  0  0  0
  6 27  1  0  0  0  0
  7 28  1  0  0  0  0
  7 29  1  0  0  0  0
  8 30  1  0  0  0  0
  9 31  1  0  0  0  0
 12 32  1  0  0  0  0
 12 33  1  0  0  0  0
 13 34  1  0  0  0  0
 13 35  1  0  0  0  0
 14 36  1  0  0  0  0
 14 37  1  0  0  0  0
 17 38  1  0  0  0  0
 18 39  1  0  0  0  0
 18 40  1  0  0  0  0
 19 41  1  0  0  0  0
 21 42  1  0  0  0  0
 25 43  1  0  0  0  0
M  END
> <r_user_dG.exp>
-6.6626190630157

$$$$
48
  -OEChem-05162309453D
 Structure written by MMmdl.
 43 46  0     0  0  0  0  0  0999 V2000
    3.5962  -50.2382    7.2860 O   0  0  0  0  0  0  0  0  0  0  0  0
    2.9915  -49.1832    6.9785 C   0  0  0  0  0  0  0  0  0  0  0  0
    3.5468  -48.0563    6.9856 O   0  0  0  0  0  0  0  0  0  0  0  0
    1.5667  -49.2814    6.6034 C   0  0  0  0  0  0  0  0  0  0  0  0
   -0.3493  -50.4961    6.2933 C   0  0  0  0  0  0  0  0  0  0  0  0
   -1.3483  -51.4866    6.2008 C   0  0  0  0  0  0  0  0  0  0  0  0
   -2.6508  -51.1171    5.7985 C   0  0  0  0  0  0  0  0  0  0  0  0
   -2.9320  -49.7715    5.4886 C   0  0  0  0  0  0  0  0  0  0  0  0
   -1.9224  -48.7928    5.5781 C   0  0  0  0  0  0  0  0  0  0  0  0
   -0.6057  -49.1301    5.9783 C   0  0  0  0  0  0  0  0  0  0  0  0
    0.6128  -48.3833    6.1734 C   0  0  0  0  0  0  0  0  0  0  0  0
    0.8068  -46.9172    5.9622 C   0  0  0  0  0  0  0  0  0  0  0  0
    0.7034  -46.1229    7.2813 C   0  0  0  0  0  0  0  0  0  0  0  0
   -0.7224  -46.0877    7.8568 C   0  0  0  0  0  0  0  0  0  0  0  0
   -1.5391  -45.3745    6.9378 O   0  0  0  0  0  0  0  0  0  0  0  0
   -2.8810  -45.1822    7.1989 C   0  0  0  0  0  0  0  0  0  0  0  0
   -5.6349  -44.5517    7.4221 C   0  0  0  0  0  0  0  0  0  0  0  0
   -4.8882  -44.0528    6.3462 C   0  0  0  0  0  0  0  0  0  0  0  0
   -3.5272  -44.3675    6.2431 C   0  0  0  0  0  0  0  0  0  0  0  0
    0.9807  -50.5349    6.6696 N   0  0  0  0  0  0  0  0  0  0  0  0
   -4.5301  -46.7432   10.1164 C   0  0  0  0  0  0  0  0  0  0  0  0
   -5.5194  -46.0063    9.4887 N   0  0  0  0  0  0  0  0  0  0  0  0
   -5.0107  -45.3807    8.3736 C   0  0  0  0  0  0  0  0  0  0  0  0
   -3.6231  -45.7297    8.3012 C   0  0  0  0  0  0  0  0  0  0  0  0
   -3.3547  -46.5895    9.4315 C   0  0  0  0  0  0  0  0  0  0  0  0
    4.4539  -48.1514    7.2515 H   0  0  0  0  0  0  0  0  0  0  0  0
   -1.1203  -52.5160    6.4348 H   0  0  0  0  0  0  0  0  0  0  0  0
   -2.8862  -51.7069    4.9003 H   0  0  0  0  0  0  0  0  0  0  0  0
   -3.3300  -51.4048    6.6145 H   0  0  0  0  0  0  0  0  0  0  0  0
   -3.9277  -49.4886    5.1805 H   0  0  0  0  0  0  0  0  0  0  0  0
   -2.1565  -47.7664    5.3372 H   0  0  0  0  0  0  0  0  0  0  0  0
    1.8021  -46.7504    5.5246 H   0  0  0  0  0  0  0  0  0  0  0  0
    0.0352  -46.5536    5.2676 H   0  0  0  0  0  0  0  0  0  0  0  0
    1.3685  -46.5890    8.0232 H   0  0  0  0  0  0  0  0  0  0  0  0
    1.0304  -45.0895    7.0937 H   0  0  0  0  0  0  0  0  0  0  0  0
   -1.1027  -47.1125    7.9797 H   0  0  0  0  0  0  0  0  0  0  0  0
   -0.7210  -45.5778    8.8315 H   0  0  0  0  0  0  0  0  0  0  0  0
   -6.6811  -44.3022    7.5206 H   0  0  0  0  0  0  0  0  0  0  0  0
   -5.3594  -43.4293    5.6009 H   0  0  0  0  0  0  0  0  0  0  0  0
   -2.9873  -43.4091    6.2373 H   0  0  0  0  0  0  0  0  0  0  0  0
   -3.3976  -44.8673    5.2718 H   0  0  0  0  0  0  0  0  0  0  0  0
   -4.6640  -47.3433   11.0043 H   0  0  0  0  0  0  0  0  0  0  0  0
   -2.4025  -47.0296    9.6884 H   0  0  0  0  0  0  0  0  0  0  0  0
  1  2  2  0  0  0  0
  2  3  1  0  0  0  0
  2  4  1  0  0  0  0
  4 11  1  0  0  0  0
  4 20  2  0  0  0  0
  5  6  2  0  0  0  0
  5 10  1  0  0  0  0
  5 20  1  0  0  0  0
  6  7  1  0  0  0  0
  7  8  1  0  0  0  0
  8  9  2  0  0  0  0
  9 10  1  0  0  0  0
 10 11  2  0  0  0  0
 11 12  1  0  0  0  0
 12 13  1  0  0  0  0
 13 14  1  0  0  0  0
 14 15  1  0  0  0  0
 15 16  1  0  0  0  0
 16 19  1  0  0  0  0
 16 24  2  0  0  0  0
 17 18  2  0  0  0  0
 17 23  1  0  0  0  0
 18 19  1  0  0  0  0
 21 22  1  0  0  0  0
 21 25  2  0  0  0  0
 22 23  2  0  0  0  0
 23 24  1  0  0  0  0
 24 25  1  0  0  0  0
  3 26  1  0  0  0  0
  6 27  1  0  0  0  0
  7 28  1  0  0  0  0
  7 29  1  0  0  0  0
  8 30  1  0  0  0  0
  9 31  1  0  0  0  0
 12 32  1  0  0  0  0
 12 33  1  0  0  0  0
 13 34  1  0  0  0  0
 13 35  1  0  0  0  0
 14 36  1  0  0  0  0
 14 37  1  0  0  0  0
 17 38  1  0  0  0  0
 18 39  1  0  0  0  0
 19 40  1  0  0  0  0
 19 41  1  0  0  0  0
 21 42  1  0  0  0  0
 25 43  1  0  0  0  0
M  END
> <r_user_dG.exp>
-6.6626190630157

$$$$
48
  -OEChem-05162309453D
 Structure written by MMmdl.
 43 46  0     0  0  0  0  0  0999 V2000
    3.5962  -50.2382    7.2860 O   0  0  0  0  0  0  0  0  0  0  0  0
    2.9915  -49.1832    6.9785 C   0  0  0  0  0  0  0  0  0  0  0  0
    3.5468  -48.0563    6.9856 O   0  0  0  0  0  0  0  0  0  0  0  0
    1.5667  -49.2814    6.6034 C   0  0  0  0  0  0  0  0  0  0  0  0
   -0.3493  -50.4961    6.2933 C   0  0  0  0  0  0  0  0  0  0  0  0
   -1.3483  -51.4866    6.2008 C   0  0  0  0  0  0  0  0  0  0  0  0
   -2.6508  -51.1171    5.7985 C   0  0  0  0  0  0  0  0  0  0  0  0
   -2.9320  -49.7715    5.4886 C   0  0  0  0  0  0  0  0  0  0  0  0
   -1.9224  -48.7928    5.5781 C   0  0  0  0  0  0  0  0  0  0  0  0
   -0.6057  -49.1301    5.9783 C   0  0  0  0  0  0  0  0  0  0  0  0
    0.6128  -48.3833    6.1734 C   0  0  0  0  0  0  0  0  0  0  0  0
    0.8068  -46.9172    5.9622 C   0  0  0  0  0  0  0  0  0  0  0  0
    0.7034  -46.1229    7.2813 C   0  0  0  0  0  0  0  0  0  0  0  0
   -0.7224  -46.0877    7.8568 C   0  0  0  0  0  0  0  0  0  0  0  0
   -1.5391  -45.3745    6.9378 O   0  0  0  0  0  0  0  0  0  0  0  0
   -2.8810  -45.1822    7.1989 C   0  0  0  0  0  0  0  0  0  0  0  0
   -5.6349  -44.5517    7.4221 C   0  0  0  0  0  0  0  0  0  0  0  0
   -4.8882  -44.0528    6.3462 C   0  0  0  0  0  0  0  0  0  0  0  0
   -3.5272  -44.3675    6.2431 C   0  0  0  0  0  0  0  0  0  0  0  0
    0.9807  -50.5349    6.6696 N   0  0  0  0  0  0  0  0  0  0  0  0
   -4.5301  -46.7432   10.1164 C   0  0  0  0  0  0  0  0  0  0  0  0
   -5.5194  -46.0063    9.4887 N   0  0  0  0  0  0  0  0  0  0  0  0
   -5.0107  -45.3807    8.3736 C   0  0  0  0  0  0  0  0  0  0  0  0
   -3.6231  -45.7297    8.3012 C   0  0  0  0  0  0  0  0  0  0  0  0
   -3.3547  -46.5895    9.4315 C   0  0  0  0  0  0  0  0  0  0  0  0
    4.4539  -48.1514    7.2515 H   0  0  0  0  0  0  0  0  0  0  0  0
   -1.1203  -52.5160    6.4348 H   0  0  0  0  0  0  0  0  0  0  0  0
   -2.8862  -51.7069    4.9003 H   0  0  0  0  0  0  0  0  0  0  0  0
   -3.3300  -51.4048    6.6145 H   0  0  0  0  0  0  0  0  0  0  0  0
   -3.9277  -49.4886    5.1805 H   0  0  0  0  0  0  0  0  0  0  0  0
   -2.1565  -47.7664    5.3372 H   0  0  0  0  0  0  0  0  0  0  0  0
    1.8021  -46.7504    5.5246 H   0  0  0  0  0  0  0  0  0  0  0  0
    0.0352  -46.5536    5.2676 H   0  0  0  0  0  0  0  0  0  0  0  0
    1.3685  -46.5890    8.0232 H   0  0  0  0  0  0  0  0  0  0  0  0
    1.0304  -45.0895    7.0937 H   0  0  0  0  0  0  0  0  0  0  0  0
   -1.1027  -47.1125    7.9797 H   0  0  0  0  0  0  0  0  0  0  0  0
   -0.7210  -45.5778    8.8315 H   0  0  0  0  0  0  0  0  0  0  0  0
   -6.0319  -43.6822    7.9666 H   0  0  0  0  0  0  0  0  0  0  0  0
   -6.4683  -45.1277    6.9935 H   0  0  0  0  0  0  0  0  0  0  0  0
   -5.3594  -43.4293    5.6009 H   0  0  0  0  0  0  0  0  0  0  0  0
   -2.9579  -43.9776    5.4123 H   0  0  0  0  0  0  0  0  0  0  0  0
   -4.6640  -47.3433   11.0043 H   0  0  0  0  0  0  0  0  0  0  0  0
   -2.4025  -47.0296    9.6884 H   0  0  0  0  0  0  0  0  0  0  0  0
  1  2  2  0  0  0  0
  2  3  1  0  0  0  0
  2  4  1  0  0  0  0
  4 11  1  0  0  0  0
  4 20  2  0  0  0  0
  5  6  2  0  0  0  0
  5 10  1  0  0  0  0
  5 20  1  0  0  0  0
  6  7  1  0  0  0  0
  7  8  1  0  0  0  0
  8  9  2  0  0  0  0
  9 10  1  0  0  0  0
 10 11  2  0  0  0  0
 11 12  1  0  0  0  0
 12 13  1  0  0  0  0
 13 14  1  0  0  0  0
 14 15  1  0  0  0  0
 15 16  1  0  0  0  0
 16 19  1  0  0  0  0
 16 24  2  0  0  0  0
 17 18  1  0  0  0  0
 17 23  1  0  0  0  0
 18 19  2  0  0  0  0
 21 22  1  0  0  0  0
 21 25  2  0  0  0  0
 22 23  2  0  0  0  0
 23 24  1  0  0  0  0
 24 25  1  0  0  0  0
  3 26  1  0  0  0  0
  6 27  1  0  0  0  0
  7 28  1  0  0  0  0
  7 29  1  0  0  0  0
  8 30  1  0  0  0  0
  9 31  1  0  0  0  0
 12 32  1  0  0  0  0
 12 33  1  0  0  0  0
 13 34  1  0  0  0  0
 13 35  1  0  0  0  0
 14 36  1  0  0  0  0
 14 37  1  0  0  0  0
 17 38  1  0  0  0  0
 17 39  1  0  0  0  0
 18 40  1  0  0  0  0
 19 41  1  0  0  0  0
 21 42  1  0  0  0  0
 25 43  1  0  0  0  0
M  END
> <r_user_dG.exp>
-6.6626190630157

$$$$
48
  -OEChem-05162309453D
 Structure written by MMmdl.
 43 46  0     1  0  0  0  0  0999 V2000
    3.5962  -50.2382    7.2860 O   0  0  0  0  0  0  0  0  0  0  0  0
    2.9915  -49.1832    6.9785 C   0  0  0  0  0  0  0  0  0  0  0  0
    3.5468  -48.0563    6.9856 O   0  0  0  0  0  0  0  0  0  0  0  0
    1.5667  -49.2814    6.6034 C   0  0  0  0  0  0  0  0  0  0  0  0
   -0.3493  -50.4961    6.2933 C   0  0  0  0  0  0  0  0  0  0  0  0
   -1.3483  -51.4866    6.2008 C   0  0  0  0  0  0  0  0  0  0  0  0
   -2.6508  -51.1171    5.7985 C   0  0  0  0  0  0  0  0  0  0  0  0
   -2.9320  -49.7715    5.4886 C   0  0  0  0  0  0  0  0  0  0  0  0
   -1.9224  -48.7928    5.5781 C   0  0  0  0  0  0  0  0  0  0  0  0
   -0.6057  -49.1301    5.9783 C   0  0  0  0  0  0  0  0  0  0  0  0
    0.6128  -48.3833    6.1734 C   0  0  0  0  0  0  0  0  0  0  0  0
    0.8068  -46.9172    5.9622 C   0  0  0  0  0  0  0  0  0  0  0  0
    0.7034  -46.1229    7.2813 C   0  0  0  0  0  0  0  0  0  0  0  0
   -0.7224  -46.0877    7.8568 C   0  0  0  0  0  0  0  0  0  0  0  0
   -1.5391  -45.3745    6.9378 O   0  0  0  0  0  0  0  0  0  0  0  0
   -2.8810  -45.1822    7.1989 C   0  0  0  0  0  0  0  0  0  0  0  0
   -5.6349  -44.5517    7.4221 C   0  0  0  0  0  0  0  0  0  0  0  0
   -4.8882  -44.0528    6.3462 C   0  0  0  0  0  0  0  0  0  0  0  0
   -3.5272  -44.3675    6.2431 C   0  0  0  0  0  0  0  0  0  0  0  0
    0.9807  -50.5349    6.6696 N   0  0  0  0  0  0  0  0  0  0  0  0
   -4.5301  -46.7432   10.1164 C   0  0  0  0  0  0  0  0  0  0  0  0
   -5.5194  -46.0063    9.4887 N   0  0  0  0  0  0  0  0  0  0  0  0
   -5.0107  -45.3807    8.3736 C   0  0  0  0  0  0  0  0  0  0  0  0
   -3.6231  -45.7297    8.3012 C   0  0  3  0  0  0  0  0  0  0  0  0
   -3.3547  -46.5895    9.4315 C   0  0  0  0  0  0  0  0  0  0  0  0
    4.4539  -48.1514    7.2515 H   0  0  0  0  0  0  0  0  0  0  0  0
   -0.9906  -52.2374    5.4808 H   0  0  0  0  0  0  0  0  0  0  0  0
   -1.4378  -51.9465    7.1960 H   0  0  0  0  0  0  0  0  0  0  0  0
   -3.4285  -51.8632    5.7286 H   0  0  0  0  0  0  0  0  0  0  0  0
   -3.9277  -49.4886    5.1805 H   0  0  0  0  0  0  0  0  0  0  0  0
   -2.1565  -47.7664    5.3372 H   0  0  0  0  0  0  0  0  0  0  0  0
    1.8021  -46.7504    5.5246 H   0  0  0  0  0  0  0  0  0  0  0  0
    0.0352  -46.5536    5.2676 H   0  0  0  0  0  0  0  0  0  0  0  0
    1.3685  -46.5890    8.0232 H   0  0  0  0  0  0  0  0  0  0  0  0
    1.0304  -45.0895    7.0937 H   0  0  0  0  0  0  0  0  0  0  0  0
   -1.1027  -47.1125    7.9797 H   0  0  0  0  0  0  0  0  0  0  0  0
   -0.7210  -45.5778    8.8315 H   0  0  0  0  0  0  0  0  0  0  0  0
   -6.6811  -44.3022    7.5206 H   0  0  0  0  0  0  0  0  0  0  0  0
   -5.3594  -43.4293    5.6009 H   0  0  0  0  0  0  0  0  0  0  0  0
   -2.9579  -43.9776    5.4123 H   0  0  0  0  0  0  0  0  0  0  0  0
   -4.6640  -47.3433   11.0043 H   0  0  0  0  0  0  0  0  0  0  0  0
   -3.3694  -44.8493    8.9100 H   0  0  0  0  0  0  0  0  0  0  0  0
   -2.4025  -47.0296    9.6884 H   0  0  0  0  0  0  0  0  0  0  0  0
  1  2  2  0  0  0  0
  2  3  1  0  0  0  0
  2  4  1  0  0  0  0
  4 11  2  0  0  0  0
  4 20  1  0  0  0  0
  5  6  1  0  0  0  0
  5 10  1  0  0  0  0
  5 20  2  0  0  0  0
  6  7  1  0  0  0  0
  7  8  2  0  0  0  0
  8  9  1  0  0  0  0
  9 10  2  0  0  0  0
 10 11  1  0  0  0  0
 11 12  1  0  0  0  0
 12 13  1  0  0  0  0
 13 14  1  0  0  0  0
 14 15  1  0  0  0  0
 15 16  1  0  0  0  0
 16 19  2  0  0  0  0
 16 24  1  0  0  0  0
 17 18  2  0  0  0  0
 17 23  1  0  0  0  0
 18 19  1  0  0  0  0
 21 22  1  0  0  0  0
 21 25  2  0  0  0  0
 22 23  2  0  0  0  0
 23 24  1  0  0  0  0
 24 25  1  0  0  0  0
  3 26  1  0  0  0  0
  6 27  1  0  0  0  0
  6 28  1  0  0  0  0
  7 29  1  0  0  0  0
  8 30  1  0  0  0  0
  9 31  1  0  0  0  0
 12 32  1  0  0  0  0
 12 33  1  0  0  0  0
 13 34  1  0  0  0  0
 13 35  1  0  0  0  0
 14 36  1  0  0  0  0
 14 37  1  0  0  0  0
 17 38  1  0  0  0  0
 18 39  1  0  0  0  0
 19 40  1  0  0  0  0
 21 41  1  0  0  0  0
 24 42  1  0  0  0  0
 25 43  1  0  0  0  0
M  END
> <r_user_dG.exp>
-6.6626190630157

$$$$
48
  -OEChem-05162309453D
 Structure written by MMmdl.
 43 46  0     1  0  0  0  0  0999 V2000
    3.5962  -50.2382    7.2860 O   0  0  0  0  0  0  0  0  0  0  0  0
    2.9915  -49.1832    6.9785 C   0  0  0  0  0  0  0  0  0  0  0  0
    3.5468  -48.0563    6.9856 O   0  0  0  0  0  0  0  0  0  0  0  0
    1.5667  -49.2814    6.6034 C   0  0  0  0  0  0  0  0  0  0  0  0
   -0.3493  -50.4961    6.2933 C   0  0  0  0  0  0  0  0  0  0  0  0
   -1.3483  -51.4866    6.2008 C   0  0  0  0  0  0  0  0  0  0  0  0
   -2.6508  -51.1171    5.7985 C   0  0  0  0  0  0  0  0  0  0  0  0
   -2.9320  -49.7715    5.4886 C   0  0  0  0  0  0  0  0  0  0  0  0
   -1.9224  -48.7928    5.5781 C   0  0  0  0  0  0  0  0  0  0  0  0
   -0.6057  -49.1301    5.9783 C   0  0  0  0  0  0  0  0  0  0  0  0
    0.6128  -48.3833    6.1734 C   0  0  0  0  0  0  0  0  0  0  0  0
    0.8068  -46.9172    5.9622 C   0  0  0  0  0  0  0  0  0  0  0  0
    0.7034  -46.1229    7.2813 C   0  0  0  0  0  0  0  0  0  0  0  0
   -0.7224  -46.0877    7.8568 C   0  0  0  0  0  0  0  0  0  0  0  0
   -1.5391  -45.3745    6.9378 O   0  0  0  0  0  0  0  0  0  0  0  0
   -2.8810  -45.1822    7.1989 C   0  0  0  0  0  0  0  0  0  0  0  0
   -5.6349  -44.5517    7.4221 C   0  0  0  0  0  0  0  0  0  0  0  0
   -4.8882  -44.0528    6.3462 C   0  0  0  0  0  0  0  0  0  0  0  0
   -3.5272  -44.3675    6.2431 C   0  0  0  0  0  0  0  0  0  0  0  0
    0.9807  -50.5349    6.6696 N   0  0  0  0  0  0  0  0  0  0  0  0
   -4.5301  -46.7432   10.1164 C   0  0  0  0  0  0  0  0  0  0  0  0
   -5.5194  -46.0063    9.4887 N   0  0  0  0  0  0  0  0  0  0  0  0
   -5.0107  -45.3807    8.3736 C   0  0  3  0  0  0  0  0  0  0  0  0
   -3.6231  -45.7297    8.3012 C   0  0  0  0  0  0  0  0  0  0  0  0
   -3.3547  -46.5895    9.4315 C   0  0  0  0  0  0  0  0  0  0  0  0
    4.4539  -48.1514    7.2515 H   0  0  0  0  0  0  0  0  0  0  0  0
   -0.9906  -52.2374    5.4808 H   0  0  0  0  0  0  0  0  0  0  0  0
   -1.4378  -51.9465    7.1960 H   0  0  0  0  0  0  0  0  0  0  0  0
   -3.4285  -51.8632    5.7286 H   0  0  0  0  0  0  0  0  0  0  0  0
   -3.9277  -49.4886    5.1805 H   0  0  0  0  0  0  0  0  0  0  0  0
   -2.1565  -47.7664    5.3372 H   0  0  0  0  0  0  0  0  0  0  0  0
    1.8021  -46.7504    5.5246 H   0  0  0  0  0  0  0  0  0  0  0  0
    0.0352  -46.5536    5.2676 H   0  0  0  0  0  0  0  0  0  0  0  0
    1.3685  -46.5890    8.0232 H   0  0  0  0  0  0  0  0  0  0  0  0
    1.0304  -45.0895    7.0937 H   0  0  0  0  0  0  0  0  0  0  0  0
   -1.1027  -47.1125    7.9797 H   0  0  0  0  0  0  0  0  0  0  0  0
   -0.7210  -45.5778    8.8315 H   0  0  0  0  0  0  0  0  0  0  0  0
   -6.6811  -44.3022    7.5206 H   0  0  0  0  0  0  0  0  0  0  0  0
   -5.3594  -43.4293    5.6009 H   0  0  0  0  0  0  0  0  0  0  0  0
   -2.9579  -43.9776    5.4123 H   0  0  0  0  0  0  0  0  0  0  0  0
   -4.6640  -47.3433   11.0043 H   0  0  0  0  0  0  0  0  0  0  0  0
   -4.7593  -44.4984    8.9806 H   0  0  0  0  0  0  0  0  0  0  0  0
   -2.4025  -47.0296    9.6884 H   0  0  0  0  0  0  0  0  0  0  0  0
  1  2  2  0  0  0  0
  2  3  1  0  0  0  0
  2  4  1  0  0  0  0
  4 11  2  0  0  0  0
  4 20  1  0  0  0  0
  5  6  1  0  0  0  0
  5 10  1  0  0  0  0
  5 20  2  0  0  0  0
  6  7  1  0  0  0  0
  7  8  2  0  0  0  0
  8  9  1  0  0  0  0
  9 10  2  0  0  0  0
 10 11  1  0  0  0  0
 11 12  1  0  0  0  0
 12 13  1  0  0  0  0
 13 14  1  0  0  0  0
 14 15  1  0  0  0  0
 15 16  1  0  0  0  0
 16 19  2  0  0  0  0
 16 24  1  0  0  0  0
 17 18  2  0  0  0  0
 17 23  1  0  0  0  0
 18 19  1  0  0  0  0
 21 22  2  0  0  0  0
 21 25  1  0  0  0  0
 22 23  1  0  0  0  0
 23 24  1  0  0  0  0
 24 25  2  0  0  0  0
  3 26  1  0  0  0  0
  6 27  1  0  0  0  0
  6 28  1  0  0  0  0
  7 29  1  0  0  0  0
  8 30  1  0  0  0  0
  9 31  1  0  0  0  0
 12 32  1  0  0  0  0
 12 33  1  0  0  0  0
 13 34  1  0  0  0  0
 13 35  1  0  0  0  0
 14 36  1  0  0  0  0
 14 37  1  0  0  0  0
 17 38  1  0  0  0  0
 18 39  1  0  0  0  0
 19 40  1  0  0  0  0
 21 41  1  0  0  0  0
 23 42  1  0  0  0  0
 25 43  1  0  0  0  0
M  END
> <r_user_dG.exp>
-6.6626190630157

$$$$
48
  -OEChem-05162309453D
 Structure written by MMmdl.
 43 46  0     1  0  0  0  0  0999 V2000
    3.5962  -50.2382    7.2860 O   0  0  0  0  0  0  0  0  0  0  0  0
    2.9915  -49.1832    6.9785 C   0  0  0  0  0  0  0  0  0  0  0  0
    3.5468  -48.0563    6.9856 O   0  0  0  0  0  0  0  0  0  0  0  0
    1.5667  -49.2814    6.6034 C   0  0  0  0  0  0  0  0  0  0  0  0
   -0.3493  -50.4961    6.2933 C   0  0  0  0  0  0  0  0  0  0  0  0
   -1.3483  -51.4866    6.2008 C   0  0  0  0  0  0  0  0  0  0  0  0
   -2.6508  -51.1171    5.7985 C   0  0  0  0  0  0  0  0  0  0  0  0
   -2.9320  -49.7715    5.4886 C   0  0  0  0  0  0  0  0  0  0  0  0
   -1.9224  -48.7928    5.5781 C   0  0  0  0  0  0  0  0  0  0  0  0
   -0.6057  -49.1301    5.9783 C   0  0  0  0  0  0  0  0  0  0  0  0
    0.6128  -48.3833    6.1734 C   0  0  0  0  0  0  0  0  0  0  0  0
    0.8068  -46.9172    5.9622 C   0  0  0  0  0  0  0  0  0  0  0  0
    0.7034  -46.1229    7.2813 C   0  0  0  0  0  0  0  0  0  0  0  0
   -0.7224  -46.0877    7.8568 C   0  0  0  0  0  0  0  0  0  0  0  0
   -1.5391  -45.3745    6.9378 O   0  0  0  0  0  0  0  0  0  0  0  0
   -2.8810  -45.1822    7.1989 C   0  0  3  0  0  0  0  0  0  0  0  0
   -5.6349  -44.5517    7.4221 C   0  0  0  0  0  0  0  0  0  0  0  0
   -4.8882  -44.0528    6.3462 C   0  0  0  0  0  0  0  0  0  0  0  0
   -3.5272  -44.3675    6.2431 C   0  0  0  0  0  0  0  0  0  0  0  0
    0.9807  -50.5349    6.6696 N   0  0  0  0  0  0  0  0  0  0  0  0
   -4.5301  -46.7432   10.1164 C   0  0  0  0  0  0  0  0  0  0  0  0
   -5.5194  -46.0063    9.4887 N   0  0  0  0  0  0  0  0  0  0  0  0
   -5.0107  -45.3807    8.3736 C   0  0  0  0  0  0  0  0  0  0  0  0
   -3.6231  -45.7297    8.3012 C   0  0  0  0  0  0  0  0  0  0  0  0
   -3.3547  -46.5895    9.4315 C   0  0  0  0  0  0  0  0  0  0  0  0
    4.4539  -48.1514    7.2515 H   0  0  0  0  0  0  0  0  0  0  0  0
   -0.9906  -52.2374    5.4808 H   0  0  0  0  0  0  0  0  0  0  0  0
   -1.4378  -51.9465    7.1960 H   0  0  0  0  0  0  0  0  0  0  0  0
   -3.4285  -51.8632    5.7286 H   0  0  0  0  0  0  0  0  0  0  0  0
   -3.9277  -49.4886    5.1805 H   0  0  0  0  0  0  0  0  0  0  0  0
   -2.1565  -47.7664    5.3372 H   0  0  0  0  0  0  0  0  0  0  0  0
    1.8021  -46.7504    5.5246 H   0  0  0  0  0  0  0  0  0  0  0  0
    0.0352  -46.5536    5.2676 H   0  0  0  0  0  0  0  0  0  0  0  0
    1.3685  -46.5890    8.0232 H   0  0  0  0  0  0  0  0  0  0  0  0
    1.0304  -45.0895    7.0937 H   0  0  0  0  0  0  0  0  0  0  0  0
   -1.1027  -47.1125    7.9797 H   0  0  0  0  0  0  0  0  0  0  0  0
   -0.7210  -45.5778    8.8315 H   0  0  0  0  0  0  0  0  0  0  0  0
   -2.6400  -44.2924    7.7991 H   0  0  0  0  0  0  0  0  0  0  0  0
   -6.6811  -44.3022    7.5206 H   0  0  0  0  0  0  0  0  0  0  0  0
   -5.3594  -43.4293    5.6009 H   0  0  0  0  0  0  0  0  0  0  0  0
   -2.9579  -43.9776    5.4123 H   0  0  0  0  0  0  0  0  0  0  0  0
   -4.6640  -47.3433   11.0043 H   0  0  0  0  0  0  0  0  0  0  0  0
   -2.4025  -47.0296    9.6884 H   0  0  0  0  0  0  0  0  0  0  0  0
  1  2  2  0  0  0  0
  2  3  1  0  0  0  0
  2  4  1  0  0  0  0
  4 11  2  0  0  0  0
  4 20  1  0  0  0  0
  5  6  1  0  0  0  0
  5 10  1  0  0  0  0
  5 20  2  0  0  0  0
  6  7  1  0  0  0  0
  7  8  2  0  0  0  0
  8  9  1  0  0  0  0
  9 10  2  0  0  0  0
 10 11  1  0  0  0  0
 11 12  1  0  0  0  0
 12 13  1  0  0  0  0
 13 14  1  0  0  0  0
 14 15  1  0  0  0  0
 15 16  1  0  0  0  0
 16 19  1  0  0  0  0
 16 24  1  0  0  0  0
 17 18  1  0  0  0  0
 17 23  2  0  0  0  0
 18 19  2  0  0  0  0
 21 22  2  0  0  0  0
 21 25  1  0  0  0  0
 22 23  1  0  0  0  0
 23 24  1  0  0  0  0
 24 25  2  0  0  0  0
  3 26  1  0  0  0  0
  6 27  1  0  0  0  0
  6 28  1  0  0  0  0
  7 29  1  0  0  0  0
  8 30  1  0  0  0  0
  9 31  1  0  0  0  0
 12 32  1  0  0  0  0
 12 33  1  0  0  0  0
 13 34  1  0  0  0  0
 13 35  1  0  0  0  0
 14 36  1  0  0  0  0
 14 37  1  0  0  0  0
 16 38  1  0  0  0  0
 17 39  1  0  0  0  0
 18 40  1  0  0  0  0
 19 41  1  0  0  0  0
 21 42  1  0  0  0  0
 25 43  1  0  0  0  0
M  END
> <r_user_dG.exp>
-6.6626190630157

$$$$
48
  -OEChem-05162309453D
 Structure written by MMmdl.
 43 46  0     0  0  0  0  0  0999 V2000
    3.5962  -50.2382    7.2860 O   0  0  0  0  0  0  0  0  0  0  0  0
    2.9915  -49.1832    6.9785 C   0  0  0  0  0  0  0  0  0  0  0  0
    3.5468  -48.0563    6.9856 O   0  0  0  0  0  0  0  0  0  0  0  0
    1.5667  -49.2814    6.6034 C   0  0  0  0  0  0  0  0  0  0  0  0
   -0.3493  -50.4961    6.2933 C   0  0  0  0  0  0  0  0  0  0  0  0
   -1.3483  -51.4866    6.2008 C   0  0  0  0  0  0  0  0  0  0  0  0
   -2.6508  -51.1171    5.7985 C   0  0  0  0  0  0  0  0  0  0  0  0
   -2.9320  -49.7715    5.4886 C   0  0  0  0  0  0  0  0  0  0  0  0
   -1.9224  -48.7928    5.5781 C   0  0  0  0  0  0  0  0  0  0  0  0
   -0.6057  -49.1301    5.9783 C   0  0  0  0  0  0  0  0  0  0  0  0
    0.6128  -48.3833    6.1734 C   0  0  0  0  0  0  0  0  0  0  0  0
    0.8068  -46.9172    5.9622 C   0  0  0  0  0  0  0  0  0  0  0  0
    0.7034  -46.1229    7.2813 C   0  0  0  0  0  0  0  0  0  0  0  0
   -0.7224  -46.0877    7.8568 C   0  0  0  0  0  0  0  0  0  0  0  0
   -1.5391  -45.3745    6.9378 O   0  0  0  0  0  0  0  0  0  0  0  0
   -2.8810  -45.1822    7.1989 C   0  0  0  0  0  0  0  0  0  0  0  0
   -5.6349  -44.5517    7.4221 C   0  0  0  0  0  0  0  0  0  0  0  0
   -4.8882  -44.0528    6.3462 C   0  0  0  0  0  0  0  0  0  0  0  0
   -3.5272  -44.3675    6.2431 C   0  0  0  0  0  0  0  0  0  0  0  0
    0.9807  -50.5349    6.6696 N   0  0  0  0  0  0  0  0  0  0  0  0
   -4.5301  -46.7432   10.1164 C   0  0  0  0  0  0  0  0  0  0  0  0
   -5.5194  -46.0063    9.4887 N   0  0  0  0  0  0  0  0  0  0  0  0
   -5.0107  -45.3807    8.3736 C   0  0  0  0  0  0  0  0  0  0  0  0
   -3.6231  -45.7297    8.3012 C   0  0  0  0  0  0  0  0  0  0  0  0
   -3.3547  -46.5895    9.4315 C   0  0  0  0  0  0  0  0  0  0  0  0
    4.4539  -48.1514    7.2515 H   0  0  0  0  0  0  0  0  0  0  0  0
   -0.9906  -52.2374    5.4808 H   0  0  0  0  0  0  0  0  0  0  0  0
   -1.4378  -51.9465    7.1960 H   0  0  0  0  0  0  0  0  0  0  0  0
   -3.4285  -51.8632    5.7286 H   0  0  0  0  0  0  0  0  0  0  0  0
   -3.9277  -49.4886    5.1805 H   0  0  0  0  0  0  0  0  0  0  0  0
   -2.1565  -47.7664    5.3372 H   0  0  0  0  0  0  0  0  0  0  0  0
    1.8021  -46.7504    5.5246 H   0  0  0  0  0  0  0  0  0  0  0  0
    0.0352  -46.5536    5.2676 H   0  0  0  0  0  0  0  0  0  0  0  0
    1.3685  -46.5890    8.0232 H   0  0  0  0  0  0  0  0  0  0  0  0
    1.0304  -45.0895    7.0937 H   0  0  0  0  0  0  0  0  0  0  0  0
   -1.1027  -47.1125    7.9797 H   0  0  0  0  0  0  0  0  0  0  0  0
   -0.7210  -45.5778    8.8315 H   0  0  0  0  0  0  0  0  0  0  0  0
   -6.6811  -44.3022    7.5206 H   0  0  0  0  0  0  0  0  0  0  0  0
   -5.3706  -44.4163    5.4269 H   0  0  0  0  0  0  0  0  0  0  0  0
   -4.9600  -42.9560    6.3889 H   0  0  0  0  0  0  0  0  0  0  0  0
   -2.9579  -43.9776    5.4123 H   0  0  0  0  0  0  0  0  0  0  0  0
   -4.6640  -47.3433   11.0043 H   0  0  0  0  0  0  0  0  0  0  0  0
   -2.4025  -47.0296    9.6884 H   0  0  0  0  0  0  0  0  0  0  0  0
  1  2  2  0  0  0  0
  2  3  1  0  0  0  0
  2  4  1  0  0  0  0
  4 11  2  0  0  0  0
  4 20  1  0  0  0  0
  5  6  1  0  0  0  0
  5 10  1  0  0  0  0
  5 20  2  0  0  0  0
  6  7  1  0  0  0  0
  7  8  2  0  0  0  0
  8  9  1  0  0  0  0
  9 10  2  0  0  0  0
 10 11  1  0  0  0  0
 11 12  1  0  0  0  0
 12 13  1  0  0  0  0
 13 14  1  0  0  0  0
 14 15  1  0  0  0  0
 15 16  1  0  0  0  0
 16 19  2  0  0  0  0
 16 24  1  0  0  0  0
 17 18  1  0  0  0  0
 17 23  2  0  0  0  0
 18 19  1  0  0  0  0
 21 22  2  0  0  0  0
 21 25  1  0  0  0  0
 22 23  1  0  0  0  0
 23 24  1  0  0  0  0
 24 25  2  0  0  0  0
  3 26  1  0  0  0  0
  6 27  1  0  0  0  0
  6 28  1  0  0  0  0
  7 29  1  0  0  0  0
  8 30  1  0  0  0  0
  9 31  1  0  0  0  0
 12 32  1  0  0  0  0
 12 33  1  0  0  0  0
 13 34  1  0  0  0  0
 13 35  1  0  0  0  0
 14 36  1  0  0  0  0
 14 37  1  0  0  0  0
 17 38  1  0  0  0  0
 18 39  1  0  0  0  0
 18 40  1  0  0  0  0
 19 41  1  0  0  0  0
 21 42  1  0  0  0  0
 25 43  1  0  0  0  0
M  END
> <r_user_dG.exp>
-6.6626190630157

$$$$
48
  -OEChem-05162309453D
 Structure written by MMmdl.
 43 46  0     0  0  0  0  0  0999 V2000
    3.5962  -50.2382    7.2860 O   0  0  0  0  0  0  0  0  0  0  0  0
    2.9915  -49.1832    6.9785 C   0  0  0  0  0  0  0  0  0  0  0  0
    3.5468  -48.0563    6.9856 O   0  0  0  0  0  0  0  0  0  0  0  0
    1.5667  -49.2814    6.6034 C   0  0  0  0  0  0  0  0  0  0  0  0
   -0.3493  -50.4961    6.2933 C   0  0  0  0  0  0  0  0  0  0  0  0
   -1.3483  -51.4866    6.2008 C   0  0  0  0  0  0  0  0  0  0  0  0
   -2.6508  -51.1171    5.7985 C   0  0  0  0  0  0  0  0  0  0  0  0
   -2.9320  -49.7715    5.4886 C   0  0  0  0  0  0  0  0  0  0  0  0
   -1.9224  -48.7928    5.5781 C   0  0  0  0  0  0  0  0  0  0  0  0
   -0.6057  -49.1301    5.9783 C   0  0  0  0  0  0  0  0  0  0  0  0
    0.6128  -48.3833    6.1734 C   0  0  0  0  0  0  0  0  0  0  0  0
    0.8068  -46.9172    5.9622 C   0  0  0  0  0  0  0  0  0  0  0  0
    0.7034  -46.1229    7.2813 C   0  0  0  0  0  0  0  0  0  0  0  0
   -0.7224  -46.0877    7.8568 C   0  0  0  0  0  0  0  0  0  0  0  0
   -1.5391  -45.3745    6.9378 O   0  0  0  0  0  0  0  0  0  0  0  0
   -2.8810  -45.1822    7.1989 C   0  0  0  0  0  0  0  0  0  0  0  0
   -5.6349  -44.5517    7.4221 C   0  0  0  0  0  0  0  0  0  0  0  0
   -4.8882  -44.0528    6.3462 C   0  0  0  0  0  0  0  0  0  0  0  0
   -3.5272  -44.3675    6.2431 C   0  0  0  0  0  0  0  0  0  0  0  0
    0.9807  -50.5349    6.6696 N   0  0  0  0  0  0  0  0  0  0  0  0
   -4.5301  -46.7432   10.1164 C   0  0  0  0  0  0  0  0  0  0  0  0
   -5.5194  -46.0063    9.4887 N   0  0  0  0  0  0  0  0  0  0  0  0
   -5.0107  -45.3807    8.3736 C   0  0  0  0  0  0  0  0  0  0  0  0
   -3.6231  -45.7297    8.3012 C   0  0  0  0  0  0  0  0  0  0  0  0
   -3.3547  -46.5895    9.4315 C   0  0  0  0  0  0  0  0  0  0  0  0
    4.4539  -48.1514    7.2515 H   0  0  0  0  0  0  0  0  0  0  0  0
   -0.9906  -52.2374    5.4808 H   0  0  0  0  0  0  0  0  0  0  0  0
   -1.4378  -51.9465    7.1960 H   0  0  0  0  0  0  0  0  0  0  0  0
   -3.4285  -51.8632    5.7286 H   0  0  0  0  0  0  0  0  0  0  0  0
   -3.9277  -49.4886    5.1805 H   0  0  0  0  0  0  0  0  0  0  0  0
   -2.1565  -47.7664    5.3372 H   0  0  0  0  0  0  0  0  0  0  0  0
    1.8021  -46.7504    5.5246 H   0  0  0  0  0  0  0  0  0  0  0  0
    0.0352  -46.5536    5.2676 H   0  0  0  0  0  0  0  0  0  0  0  0
    1.3685  -46.5890    8.0232 H   0  0  0  0  0  0  0  0  0  0  0  0
    1.0304  -45.0895    7.0937 H   0  0  0  0  0  0  0  0  0  0  0  0
   -1.1027  -47.1125    7.9797 H   0  0  0  0  0  0  0  0  0  0  0  0
   -0.7210  -45.5778    8.8315 H   0  0  0  0  0  0  0  0  0  0  0  0
   -6.6811  -44.3022    7.5206 H   0  0  0  0  0  0  0  0  0  0  0  0
   -5.3594  -43.4293    5.6009 H   0  0  0  0  0  0  0  0  0  0  0  0
   -2.9873  -43.4091    6.2373 H   0  0  0  0  0  0  0  0  0  0  0  0
   -3.3976  -44.8673    5.2718 H   0  0  0  0  0  0  0  0  0  0  0  0
   -4.6640  -47.3433   11.0043 H   0  0  0  0  0  0  0  0  0  0  0  0
   -2.4025  -47.0296    9.6884 H   0  0  0  0  0  0  0  0  0  0  0  0
  1  2  2  0  0  0  0
  2  3  1  0  0  0  0
  2  4  1  0  0  0  0
  4 11  2  0  0  0  0
  4 20  1  0  0  0  0
  5  6  1  0  0  0  0
  5 10  1  0  0  0  0
  5 20  2  0  0  0  0
  6  7  1  0  0  0  0
  7  8  2  0  0  0  0
  8  9  1  0  0  0  0
  9 10  2  0  0  0  0
 10 11  1  0  0  0  0
 11 12  1  0  0  0  0
 12 13  1  0  0  0  0
 13 14  1  0  0  0  0
 14 15  1  0  0  0  0
 15 16  1  0  0  0  0
 16 19  1  0  0  0  0
 16 24  2  0  0  0  0
 17 18  2  0  0  0  0
 17 23  1  0  0  0  0
 18 19  1  0  0  0  0
 21 22  1  0  0  0  0
 21 25  2  0  0  0  0
 22 23  2  0  0  0  0
 23 24  1  0  0  0  0
 24 25  1  0  0  0  0
  3 26  1  0  0  0  0
  6 27  1  0  0  0  0
  6 28  1  0  0  0  0
  7 29  1  0  0  0  0
  8 30  1  0  0  0  0
  9 31  1  0  0  0  0
 12 32  1  0  0  0  0
 12 33  1  0  0  0  0
 13 34  1  0  0  0  0
 13 35  1  0  0  0  0
 14 36  1  0  0  0  0
 14 37  1  0  0  0  0
 17 38  1  0  0  0  0
 18 39  1  0  0  0  0
 19 40  1  0  0  0  0
 19 41  1  0  0  0  0
 21 42  1  0  0  0  0
 25 43  1  0  0  0  0
M  END
> <r_user_dG.exp>
-6.6626190630157

$$$$
48
  -OEChem-05162309453D
 Structure written by MMmdl.
 43 46  0     0  0  0  0  0  0999 V2000
    3.5962  -50.2382    7.2860 O   0  0  0  0  0  0  0  0  0  0  0  0
    2.9915  -49.1832    6.9785 C   0  0  0  0  0  0  0  0  0  0  0  0
    3.5468  -48.0563    6.9856 O   0  0  0  0  0  0  0  0  0  0  0  0
    1.5667  -49.2814    6.6034 C   0  0  0  0  0  0  0  0  0  0  0  0
   -0.3493  -50.4961    6.2933 C   0  0  0  0  0  0  0  0  0  0  0  0
   -1.3483  -51.4866    6.2008 C   0  0  0  0  0  0  0  0  0  0  0  0
   -2.6508  -51.1171    5.7985 C   0  0  0  0  0  0  0  0  0  0  0  0
   -2.9320  -49.7715    5.4886 C   0  0  0  0  0  0  0  0  0  0  0  0
   -1.9224  -48.7928    5.5781 C   0  0  0  0  0  0  0  0  0  0  0  0
   -0.6057  -49.1301    5.9783 C   0  0  0  0  0  0  0  0  0  0  0  0
    0.6128  -48.3833    6.1734 C   0  0  0  0  0  0  0  0  0  0  0  0
    0.8068  -46.9172    5.9622 C   0  0  0  0  0  0  0  0  0  0  0  0
    0.7034  -46.1229    7.2813 C   0  0  0  0  0  0  0  0  0  0  0  0
   -0.7224  -46.0877    7.8568 C   0  0  0  0  0  0  0  0  0  0  0  0
   -1.5391  -45.3745    6.9378 O   0  0  0  0  0  0  0  0  0  0  0  0
   -2.8810  -45.1822    7.1989 C   0  0  0  0  0  0  0  0  0  0  0  0
   -5.6349  -44.5517    7.4221 C   0  0  0  0  0  0  0  0  0  0  0  0
   -4.8882  -44.0528    6.3462 C   0  0  0  0  0  0  0  0  0  0  0  0
   -3.5272  -44.3675    6.2431 C   0  0  0  0  0  0  0  0  0  0  0  0
    0.9807  -50.5349    6.6696 N   0  0  0  0  0  0  0  0  0  0  0  0
   -4.5301  -46.7432   10.1164 C   0  0  0  0  0  0  0  0  0  0  0  0
   -5.5194  -46.0063    9.4887 N   0  0  0  0  0  0  0  0  0  0  0  0
   -5.0107  -45.3807    8.3736 C   0  0  0  0  0  0  0  0  0  0  0  0
   -3.6231  -45.7297    8.3012 C   0  0  0  0  0  0  0  0  0  0  0  0
   -3.3547  -46.5895    9.4315 C   0  0  0  0  0  0  0  0  0  0  0  0
    4.4539  -48.1514    7.2515 H   0  0  0  0  0  0  0  0  0  0  0  0
   -0.9906  -52.2374    5.4808 H   0  0  0  0  0  0  0  0  0  0  0  0
   -1.4378  -51.9465    7.1960 H   0  0  0  0  0  0  0  0  0  0  0  0
   -3.4285  -51.8632    5.7286 H   0  0  0  0  0  0  0  0  0  0  0  0
   -3.9277  -49.4886    5.1805 H   0  0  0  0  0  0  0  0  0  0  0  0
   -2.1565  -47.7664    5.3372 H   0  0  0  0  0  0  0  0  0  0  0  0
    1.8021  -46.7504    5.5246 H   0  0  0  0  0  0  0  0  0  0  0  0
    0.0352  -46.5536    5.2676 H   0  0  0  0  0  0  0  0  0  0  0  0
    1.3685  -46.5890    8.0232 H   0  0  0  0  0  0  0  0  0  0  0  0
    1.0304  -45.0895    7.0937 H   0  0  0  0  0  0  0  0  0  0  0  0
   -1.1027  -47.1125    7.9797 H   0  0  0  0  0  0  0  0  0  0  0  0
   -0.7210  -45.5778    8.8315 H   0  0  0  0  0  0  0  0  0  0  0  0
   -6.0319  -43.6822    7.9666 H   0  0  0  0  0  0  0  0  0  0  0  0
   -6.4683  -45.1277    6.9935 H   0  0  0  0  0  0  0  0  0  0  0  0
   -5.3594  -43.4293    5.6009 H   0  0  0  0  0  0  0  0  0  0  0  0
   -2.9579  -43.9776    5.4123 H   0  0  0  0  0  0  0  0  0  0  0  0
   -4.6640  -47.3433   11.0043 H   0  0  0  0  0  0  0  0  0  0  0  0
   -2.4025  -47.0296    9.6884 H   0  0  0  0  0  0  0  0  0  0  0  0
  1  2  2  0  0  0  0
  2  3  1  0  0  0  0
  2  4  1  0  0  0  0
  4 11  2  0  0  0  0
  4 20  1  0  0  0  0
  5  6  1  0  0  0  0
  5 10  1  0  0  0  0
  5 20  2  0  0  0  0
  6  7  1  0  0  0  0
  7  8  2  0  0  0  0
  8  9  1  0  0  0  0
  9 10  2  0  0  0  0
 10 11  1  0  0  0  0
 11 12  1  0  0  0  0
 12 13  1  0  0  0  0
 13 14  1  0  0  0  0
 14 15  1  0  0  0  0
 15 16  1  0  0  0  0
 16 19  1  0  0  0  0
 16 24  2  0  0  0  0
 17 18  1  0  0  0  0
 17 23  1  0  0  0  0
 18 19  2  0  0  0  0
 21 22  1  0  0  0  0
 21 25  2  0  0  0  0
 22 23  2  0  0  0  0
 23 24  1  0  0  0  0
 24 25  1  0  0  0  0
  3 26  1  0  0  0  0
  6 27  1  0  0  0  0
  6 28  1  0  0  0  0
  7 29  1  0  0  0  0
  8 30  1  0  0  0  0
  9 31  1  0  0  0  0
 12 32  1  0  0  0  0
 12 33  1  0  0  0  0
 13 34  1  0  0  0  0
 13 35  1  0  0  0  0
 14 36  1  0  0  0  0
 14 37  1  0  0  0  0
 17 38  1  0  0  0  0
 17 39  1  0  0  0  0
 18 40  1  0  0  0  0
 19 41  1  0  0  0  0
 21 42  1  0  0  0  0
 25 43  1  0  0  0  0
M  END
> <r_user_dG.exp>
-6.6626190630157

$$$$
48
  -OEChem-05162309453D
 Structure written by MMmdl.
 43 46  0     1  0  0  0  0  0999 V2000
    3.5962  -50.2382    7.2860 O   0  0  0  0  0  0  0  0  0  0  0  0
    2.9915  -49.1832    6.9785 C   0  0  0  0  0  0  0  0  0  0  0  0
    3.5468  -48.0563    6.9856 O   0  0  0  0  0  0  0  0  0  0  0  0
    1.5667  -49.2814    6.6034 C   0  0  0  0  0  0  0  0  0  0  0  0
   -0.3493  -50.4961    6.2933 C   0  0  0  0  0  0  0  0  0  0  0  0
   -1.3483  -51.4866    6.2008 C   0  0  0  0  0  0  0  0  0  0  0  0
   -2.6508  -51.1171    5.7985 C   0  0  0  0  0  0  0  0  0  0  0  0
   -2.9320  -49.7715    5.4886 C   0  0  0  0  0  0  0  0  0  0  0  0
   -1.9224  -48.7928    5.5781 C   0  0  0  0  0  0  0  0  0  0  0  0
   -0.6057  -49.1301    5.9783 C   0  0  0  0  0  0  0  0  0  0  0  0
    0.6128  -48.3833    6.1734 C   0  0  0  0  0  0  0  0  0  0  0  0
    0.8068  -46.9172    5.9622 C   0  0  0  0  0  0  0  0  0  0  0  0
    0.7034  -46.1229    7.2813 C   0  0  0  0  0  0  0  0  0  0  0  0
   -0.7224  -46.0877    7.8568 C   0  0  0  0  0  0  0  0  0  0  0  0
   -1.5391  -45.3745    6.9378 O   0  0  0  0  0  0  0  0  0  0  0  0
   -2.8810  -45.1822    7.1989 C   0  0  0  0  0  0  0  0  0  0  0  0
   -5.6349  -44.5517    7.4221 C   0  0  0  0  0  0  0  0  0  0  0  0
   -4.8882  -44.0528    6.3462 C   0  0  0  0  0  0  0  0  0  0  0  0
   -3.5272  -44.3675    6.2431 C   0  0  0  0  0  0  0  0  0  0  0  0
    0.9807  -50.5349    6.6696 N   0  0  0  0  0  0  0  0  0  0  0  0
   -4.5301  -46.7432   10.1164 C   0  0  0  0  0  0  0  0  0  0  0  0
   -5.5194  -46.0063    9.4887 N   0  0  0  0  0  0  0  0  0  0  0  0
   -5.0107  -45.3807    8.3736 C   0  0  0  0  0  0  0  0  0  0  0  0
   -3.6231  -45.7297    8.3012 C   0  0  3  0  0  0  0  0  0  0  0  0
   -3.3547  -46.5895    9.4315 C   0  0  0  0  0  0  0  0  0  0  0  0
    4.4539  -48.1514    7.2515 H   0  0  0  0  0  0  0  0  0  0  0  0
   -1.1203  -52.5160    6.4348 H   0  0  0  0  0  0  0  0  0  0  0  0
   -3.4285  -51.8632    5.7286 H   0  0  0  0  0  0  0  0  0  0  0  0
   -3.9277  -49.4886    5.1805 H   0  0  0  0  0  0  0  0  0  0  0  0
   -1.8381  -48.3398    4.5793 H   0  0  0  0  0  0  0  0  0  0  0  0
   -2.2820  -48.0386    6.2936 H   0  0  0  0  0  0  0  0  0  0  0  0
    1.8021  -46.7504    5.5246 H   0  0  0  0  0  0  0  0  0  0  0  0
    0.0352  -46.5536    5.2676 H   0  0  0  0  0  0  0  0  0  0  0  0
    1.3685  -46.5890    8.0232 H   0  0  0  0  0  0  0  0  0  0  0  0
    1.0304  -45.0895    7.0937 H   0  0  0  0  0  0  0  0  0  0  0  0
   -1.1027  -47.1125    7.9797 H   0  0  0  0  0  0  0  0  0  0  0  0
   -0.7210  -45.5778    8.8315 H   0  0  0  0  0  0  0  0  0  0  0  0
   -6.6811  -44.3022    7.5206 H   0  0  0  0  0  0  0  0  0  0  0  0
   -5.3594  -43.4293    5.6009 H   0  0  0  0  0  0  0  0  0  0  0  0
   -2.9579  -43.9776    5.4123 H   0  0  0  0  0  0  0  0  0  0  0  0
   -4.6640  -47.3433   11.0043 H   0  0  0  0  0  0  0  0  0  0  0  0
   -3.3694  -44.8493    8.9100 H   0  0  0  0  0  0  0  0  0  0  0  0
   -2.4025  -47.0296    9.6884 H   0  0  0  0  0  0  0  0  0  0  0  0
  1  2  2  0  0  0  0
  2  3  1  0  0  0  0
  2  4  1  0  0  0  0
  4 11  1  0  0  0  0
  4 20  2  0  0  0  0
  5  6  2  0  0  0  0
  5 10  1  0  0  0  0
  5 20  1  0  0  0  0
  6  7  1  0  0  0  0
  7  8  2  0  0  0  0
  8  9  1  0  0  0  0
  9 10  1  0  0  0  0
 10 11  2  0  0  0  0
 11 12  1  0  0  0  0
 12 13  1  0  0  0  0
 13 14  1  0  0  0  0
 14 15  1  0  0  0  0
 15 16  1  0  0  0  0
 16 19  2  0  0  0  0
 16 24  1  0  0  0  0
 17 18  2  0  0  0  0
 17 23  1  0  0  0  0
 18 19  1  0  0  0  0
 21 22  1  0  0  0  0
 21 25  2  0  0  0  0
 22 23  2  0  0  0  0
 23 24  1  0  0  0  0
 24 25  1  0  0  0  0
  3 26  1  0  0  0  0
  6 27  1  0  0  0  0
  7 28  1  0  0  0  0
  8 29  1  0  0  0  0
  9 30  1  0  0  0  0
  9 31  1  0  0  0  0
 12 32  1  0  0  0  0
 12 33  1  0  0  0  0
 13 34  1  0  0  0  0
 13 35  1  0  0  0  0
 14 36  1  0  0  0  0
 14 37  1  0  0  0  0
 17 38  1  0  0  0  0
 18 39  1  0  0  0  0
 19 40  1  0  0  0  0
 21 41  1  0  0  0  0
 24 42  1  0  0  0  0
 25 43  1  0  0  0  0
M  END
> <r_user_dG.exp>
-6.6626190630157

$$$$
48
  -OEChem-05162309453D
 Structure written by MMmdl.
 43 46  0     1  0  0  0  0  0999 V2000
    3.5962  -50.2382    7.2860 O   0  0  0  0  0  0  0  0  0  0  0  0
    2.9915  -49.1832    6.9785 C   0  0  0  0  0  0  0  0  0  0  0  0
    3.5468  -48.0563    6.9856 O   0  0  0  0  0  0  0  0  0  0  0  0
    1.5667  -49.2814    6.6034 C   0  0  0  0  0  0  0  0  0  0  0  0
   -0.3493  -50.4961    6.2933 C   0  0  0  0  0  0  0  0  0  0  0  0
   -1.3483  -51.4866    6.2008 C   0  0  0  0  0  0  0  0  0  0  0  0
   -2.6508  -51.1171    5.7985 C   0  0  0  0  0  0  0  0  0  0  0  0
   -2.9320  -49.7715    5.4886 C   0  0  0  0  0  0  0  0  0  0  0  0
   -1.9224  -48.7928    5.5781 C   0  0  0  0  0  0  0  0  0  0  0  0
   -0.6057  -49.1301    5.9783 C   0  0  0  0  0  0  0  0  0  0  0  0
    0.6128  -48.3833    6.1734 C   0  0  0  0  0  0  0  0  0  0  0  0
    0.8068  -46.9172    5.9622 C   0  0  0  0  0  0  0  0  0  0  0  0
    0.7034  -46.1229    7.2813 C   0  0  0  0  0  0  0  0  0  0  0  0
   -0.7224  -46.0877    7.8568 C   0  0  0  0  0  0  0  0  0  0  0  0
   -1.5391  -45.3745    6.9378 O   0  0  0  0  0  0  0  0  0  0  0  0
   -2.8810  -45.1822    7.1989 C   0  0  0  0  0  0  0  0  0  0  0  0
   -5.6349  -44.5517    7.4221 C   0  0  0  0  0  0  0  0  0  0  0  0
   -4.8882  -44.0528    6.3462 C   0  0  0  0  0  0  0  0  0  0  0  0
   -3.5272  -44.3675    6.2431 C   0  0  0  0  0  0  0  0  0  0  0  0
    0.9807  -50.5349    6.6696 N   0  0  0  0  0  0  0  0  0  0  0  0
   -4.5301  -46.7432   10.1164 C   0  0  0  0  0  0  0  0  0  0  0  0
   -5.5194  -46.0063    9.4887 N   0  0  0  0  0  0  0  0  0  0  0  0
   -5.0107  -45.3807    8.3736 C   0  0  3  0  0  0  0  0  0  0  0  0
   -3.6231  -45.7297    8.3012 C   0  0  0  0  0  0  0  0  0  0  0  0
   -3.3547  -46.5895    9.4315 C   0  0  0  0  0  0  0  0  0  0  0  0
    4.4539  -48.1514    7.2515 H   0  0  0  0  0  0  0  0  0  0  0  0
   -1.1203  -52.5160    6.4348 H   0  0  0  0  0  0  0  0  0  0  0  0
   -3.4285  -51.8632    5.7286 H   0  0  0  0  0  0  0  0  0  0  0  0
   -3.9277  -49.4886    5.1805 H   0  0  0  0  0  0  0  0  0  0  0  0
   -1.8381  -48.3398    4.5793 H   0  0  0  0  0  0  0  0  0  0  0  0
   -2.2820  -48.0386    6.2936 H   0  0  0  0  0  0  0  0  0  0  0  0
    1.8021  -46.7504    5.5246 H   0  0  0  0  0  0  0  0  0  0  0  0
    0.0352  -46.5536    5.2676 H   0  0  0  0  0  0  0  0  0  0  0  0
    1.3685  -46.5890    8.0232 H   0  0  0  0  0  0  0  0  0  0  0  0
    1.0304  -45.0895    7.0937 H   0  0  0  0  0  0  0  0  0  0  0  0
   -1.1027  -47.1125    7.9797 H   0  0  0  0  0  0  0  0  0  0  0  0
   -0.7210  -45.5778    8.8315 H   0  0  0  0  0  0  0  0  0  0  0  0
   -6.6811  -44.3022    7.5206 H   0  0  0  0  0  0  0  0  0  0  0  0
   -5.3594  -43.4293    5.6009 H   0  0  0  0  0  0  0  0  0  0  0  0
   -2.9579  -43.9776    5.4123 H   0  0  0  0  0  0  0  0  0  0  0  0
   -4.6640  -47.3433   11.0043 H   0  0  0  0  0  0  0  0  0  0  0  0
   -4.7593  -44.4984    8.9806 H   0  0  0  0  0  0  0  0  0  0  0  0
   -2.4025  -47.0296    9.6884 H   0  0  0  0  0  0  0  0  0  0  0  0
  1  2  2  0  0  0  0
  2  3  1  0  0  0  0
  2  4  1  0  0  0  0
  4 11  1  0  0  0  0
  4 20  2  0  0  0  0
  5  6  2  0  0  0  0
  5 10  1  0  0  0  0
  5 20  1  0  0  0  0
  6  7  1  0  0  0  0
  7  8  2  0  0  0  0
  8  9  1  0  0  0  0
  9 10  1  0  0  0  0
 10 11  2  0  0  0  0
 11 12  1  0  0  0  0
 12 13  1  0  0  0  0
 13 14  1  0  0  0  0
 14 15  1  0  0  0  0
 15 16  1  0  0  0  0
 16 19  2  0  0  0  0
 16 24  1  0  0  0  0
 17 18  2  0  0  0  0
 17 23  1  0  0  0  0
 18 19  1  0  0  0  0
 21 22  2  0  0  0  0
 21 25  1  0  0  0  0
 22 23  1  0  0  0  0
 23 24  1  0  0  0  0
 24 25  2  0  0  0  0
  3 26  1  0  0  0  0
  6 27  1  0  0  0  0
  7 28  1  0  0  0  0
  8 29  1  0  0  0  0
  9 30  1  0  0  0  0
  9 31  1  0  0  0  0
 12 32  1  0  0  0  0
 12 33  1  0  0  0  0
 13 34  1  0  0  0  0
 13 35  1  0  0  0  0
 14 36  1  0  0  0  0
 14 37  1  0  0  0  0
 17 38  1  0  0  0  0
 18 39  1  0  0  0  0
 19 40  1  0  0  0  0
 21 41  1  0  0  0  0
 23 42  1  0  0  0  0
 25 43  1  0  0  0  0
M  END
> <r_user_dG.exp>
-6.6626190630157

$$$$
48
  -OEChem-05162309453D
 Structure written by MMmdl.
 43 46  0     1  0  0  0  0  0999 V2000
    3.5962  -50.2382    7.2860 O   0  0  0  0  0  0  0  0  0  0  0  0
    2.9915  -49.1832    6.9785 C   0  0  0  0  0  0  0  0  0  0  0  0
    3.5468  -48.0563    6.9856 O   0  0  0  0  0  0  0  0  0  0  0  0
    1.5667  -49.2814    6.6034 C   0  0  0  0  0  0  0  0  0  0  0  0
   -0.3493  -50.4961    6.2933 C   0  0  0  0  0  0  0  0  0  0  0  0
   -1.3483  -51.4866    6.2008 C   0  0  0  0  0  0  0  0  0  0  0  0
   -2.6508  -51.1171    5.7985 C   0  0  0  0  0  0  0  0  0  0  0  0
   -2.9320  -49.7715    5.4886 C   0  0  0  0  0  0  0  0  0  0  0  0
   -1.9224  -48.7928    5.5781 C   0  0  0  0  0  0  0  0  0  0  0  0
   -0.6057  -49.1301    5.9783 C   0  0  0  0  0  0  0  0  0  0  0  0
    0.6128  -48.3833    6.1734 C   0  0  0  0  0  0  0  0  0  0  0  0
    0.8068  -46.9172    5.9622 C   0  0  0  0  0  0  0  0  0  0  0  0
    0.7034  -46.1229    7.2813 C   0  0  0  0  0  0  0  0  0  0  0  0
   -0.7224  -46.0877    7.8568 C   0  0  0  0  0  0  0  0  0  0  0  0
   -1.5391  -45.3745    6.9378 O   0  0  0  0  0  0  0  0  0  0  0  0
   -2.8810  -45.1822    7.1989 C   0  0  3  0  0  0  0  0  0  0  0  0
   -5.6349  -44.5517    7.4221 C   0  0  0  0  0  0  0  0  0  0  0  0
   -4.8882  -44.0528    6.3462 C   0  0  0  0  0  0  0  0  0  0  0  0
   -3.5272  -44.3675    6.2431 C   0  0  0  0  0  0  0  0  0  0  0  0
    0.9807  -50.5349    6.6696 N   0  0  0  0  0  0  0  0  0  0  0  0
   -4.5301  -46.7432   10.1164 C   0  0  0  0  0  0  0  0  0  0  0  0
   -5.5194  -46.0063    9.4887 N   0  0  0  0  0  0  0  0  0  0  0  0
   -5.0107  -45.3807    8.3736 C   0  0  0  0  0  0  0  0  0  0  0  0
   -3.6231  -45.7297    8.3012 C   0  0  0  0  0  0  0  0  0  0  0  0
   -3.3547  -46.5895    9.4315 C   0  0  0  0  0  0  0  0  0  0  0  0
    4.4539  -48.1514    7.2515 H   0  0  0  0  0  0  0  0  0  0  0  0
   -1.1203  -52.5160    6.4348 H   0  0  0  0  0  0  0  0  0  0  0  0
   -3.4285  -51.8632    5.7286 H   0  0  0  0  0  0  0  0  0  0  0  0
   -3.9277  -49.4886    5.1805 H   0  0  0  0  0  0  0  0  0  0  0  0
   -1.8381  -48.3398    4.5793 H   0  0  0  0  0  0  0  0  0  0  0  0
   -2.2820  -48.0386    6.2936 H   0  0  0  0  0  0  0  0  0  0  0  0
    1.8021  -46.7504    5.5246 H   0  0  0  0  0  0  0  0  0  0  0  0
    0.0352  -46.5536    5.2676 H   0  0  0  0  0  0  0  0  0  0  0  0
    1.3685  -46.5890    8.0232 H   0  0  0  0  0  0  0  0  0  0  0  0
    1.0304  -45.0895    7.0937 H   0  0  0  0  0  0  0  0  0  0  0  0
   -1.1027  -47.1125    7.9797 H   0  0  0  0  0  0  0  0  0  0  0  0
   -0.7210  -45.5778    8.8315 H   0  0  0  0  0  0  0  0  0  0  0  0
   -2.6400  -44.2924    7.7991 H   0  0  0  0  0  0  0  0  0  0  0  0
   -6.6811  -44.3022    7.5206 H   0  0  0  0  0  0  0  0  0  0  0  0
   -5.3594  -43.4293    5.6009 H   0  0  0  0  0  0  0  0  0  0  0  0
   -2.9579  -43.9776    5.4123 H   0  0  0  0  0  0  0  0  0  0  0  0
   -4.6640  -47.3433   11.0043 H   0  0  0  0  0  0  0  0  0  0  0  0
   -2.4025  -47.0296    9.6884 H   0  0  0  0  0  0  0  0  0  0  0  0
  1  2  2  0  0  0  0
  2  3  1  0  0  0  0
  2  4  1  0  0  0  0
  4 11  1  0  0  0  0
  4 20  2  0  0  0  0
  5  6  2  0  0  0  0
  5 10  1  0  0  0  0
  5 20  1  0  0  0  0
  6  7  1  0  0  0  0
  7  8  2  0  0  0  0
  8  9  1  0  0  0  0
  9 10  1  0  0  0  0
 10 11  2  0  0  0  0
 11 12  1  0  0  0  0
 12 13  1  0  0  0  0
 13 14  1  0  0  0  0
 14 15  1  0  0  0  0
 15 16  1  0  0  0  0
 16 19  1  0  0  0  0
 16 24  1  0  0  0  0
 17 18  1  0  0  0  0
 17 23  2  0  0  0  0
 18 19  2  0  0  0  0
 21 22  2  0  0  0  0
 21 25  1  0  0  0  0
 22 23  1  0  0  0  0
 23 24  1  0  0  0  0
 24 25  2  0  0  0  0
  3 26  1  0  0  0  0
  6 27  1  0  0  0  0
  7 28  1  0  0  0  0
  8 29  1  0  0  0  0
  9 30  1  0  0  0  0
  9 31  1  0  0  0  0
 12 32  1  0  0  0  0
 12 33  1  0  0  0  0
 13 34  1  0  0  0  0
 13 35  1  0  0  0  0
 14 36  1  0  0  0  0
 14 37  1  0  0  0  0
 16 38  1  0  0  0  0
 17 39  1  0  0  0  0
 18 40  1  0  0  0  0
 19 41  1  0  0  0  0
 21 42  1  0  0  0  0
 25 43  1  0  0  0  0
M  END
> <r_user_dG.exp>
-6.6626190630157

$$$$
48
  -OEChem-05162309453D
 Structure written by MMmdl.
 43 46  0     0  0  0  0  0  0999 V2000
    3.5962  -50.2382    7.2860 O   0  0  0  0  0  0  0  0  0  0  0  0
    2.9915  -49.1832    6.9785 C   0  0  0  0  0  0  0  0  0  0  0  0
    3.5468  -48.0563    6.9856 O   0  0  0  0  0  0  0  0  0  0  0  0
    1.5667  -49.2814    6.6034 C   0  0  0  0  0  0  0  0  0  0  0  0
   -0.3493  -50.4961    6.2933 C   0  0  0  0  0  0  0  0  0  0  0  0
   -1.3483  -51.4866    6.2008 C   0  0  0  0  0  0  0  0  0  0  0  0
   -2.6508  -51.1171    5.7985 C   0  0  0  0  0  0  0  0  0  0  0  0
   -2.9320  -49.7715    5.4886 C   0  0  0  0  0  0  0  0  0  0  0  0
   -1.9224  -48.7928    5.5781 C   0  0  0  0  0  0  0  0  0  0  0  0
   -0.6057  -49.1301    5.9783 C   0  0  0  0  0  0  0  0  0  0  0  0
    0.6128  -48.3833    6.1734 C   0  0  0  0  0  0  0  0  0  0  0  0
    0.8068  -46.9172    5.9622 C   0  0  0  0  0  0  0  0  0  0  0  0
    0.7034  -46.1229    7.2813 C   0  0  0  0  0  0  0  0  0  0  0  0
   -0.7224  -46.0877    7.8568 C   0  0  0  0  0  0  0  0  0  0  0  0
   -1.5391  -45.3745    6.9378 O   0  0  0  0  0  0  0  0  0  0  0  0
   -2.8810  -45.1822    7.1989 C   0  0  0  0  0  0  0  0  0  0  0  0
   -5.6349  -44.5517    7.4221 C   0  0  0  0  0  0  0  0  0  0  0  0
   -4.8882  -44.0528    6.3462 C   0  0  0  0  0  0  0  0  0  0  0  0
   -3.5272  -44.3675    6.2431 C   0  0  0  0  0  0  0  0  0  0  0  0
    0.9807  -50.5349    6.6696 N   0  0  0  0  0  0  0  0  0  0  0  0
   -4.5301  -46.7432   10.1164 C   0  0  0  0  0  0  0  0  0  0  0  0
   -5.5194  -46.0063    9.4887 N   0  0  0  0  0  0  0  0  0  0  0  0
   -5.0107  -45.3807    8.3736 C   0  0  0  0  0  0  0  0  0  0  0  0
   -3.6231  -45.7297    8.3012 C   0  0  0  0  0  0  0  0  0  0  0  0
   -3.3547  -46.5895    9.4315 C   0  0  0  0  0  0  0  0  0  0  0  0
    4.4539  -48.1514    7.2515 H   0  0  0  0  0  0  0  0  0  0  0  0
   -1.1203  -52.5160    6.4348 H   0  0  0  0  0  0  0  0  0  0  0  0
   -3.4285  -51.8632    5.7286 H   0  0  0  0  0  0  0  0  0  0  0  0
   -3.9277  -49.4886    5.1805 H   0  0  0  0  0  0  0  0  0  0  0  0
   -1.8381  -48.3398    4.5793 H   0  0  0  0  0  0  0  0  0  0  0  0
   -2.2820  -48.0386    6.2936 H   0  0  0  0  0  0  0  0  0  0  0  0
    1.8021  -46.7504    5.5246 H   0  0  0  0  0  0  0  0  0  0  0  0
    0.0352  -46.5536    5.2676 H   0  0  0  0  0  0  0  0  0  0  0  0
    1.3685  -46.5890    8.0232 H   0  0  0  0  0  0  0  0  0  0  0  0
    1.0304  -45.0895    7.0937 H   0  0  0  0  0  0  0  0  0  0  0  0
   -1.1027  -47.1125    7.9797 H   0  0  0  0  0  0  0  0  0  0  0  0
   -0.7210  -45.5778    8.8315 H   0  0  0  0  0  0  0  0  0  0  0  0
   -6.6811  -44.3022    7.5206 H   0  0  0  0  0  0  0  0  0  0  0  0
   -5.3706  -44.4163    5.4269 H   0  0  0  0  0  0  0  0  0  0  0  0
   -4.9600  -42.9560    6.3889 H   0  0  0  0  0  0  0  0  0  0  0  0
   -2.9579  -43.9776    5.4123 H   0  0  0  0  0  0  0  0  0  0  0  0
   -4.6640  -47.3433   11.0043 H   0  0  0  0  0  0  0  0  0  0  0  0
   -2.4025  -47.0296    9.6884 H   0  0  0  0  0  0  0  0  0  0  0  0
  1  2  2  0  0  0  0
  2  3  1  0  0  0  0
  2  4  1  0  0  0  0
  4 11  1  0  0  0  0
  4 20  2  0  0  0  0
  5  6  2  0  0  0  0
  5 10  1  0  0  0  0
  5 20  1  0  0  0  0
  6  7  1  0  0  0  0
  7  8  2  0  0  0  0
  8  9  1  0  0  0  0
  9 10  1  0  0  0  0
 10 11  2  0  0  0  0
 11 12  1  0  0  0  0
 12 13  1  0  0  0  0
 13 14  1  0  0  0  0
 14 15  1  0  0  0  0
 15 16  1  0  0  0  0
 16 19  2  0  0  0  0
 16 24  1  0  0  0  0
 17 18  1  0  0  0  0
 17 23  2  0  0  0  0
 18 19  1  0  0  0  0
 21 22  2  0  0  0  0
 21 25  1  0  0  0  0
 22 23  1  0  0  0  0
 23 24  1  0  0  0  0
 24 25  2  0  0  0  0
  3 26  1  0  0  0  0
  6 27  1  0  0  0  0
  7 28  1  0  0  0  0
  8 29  1  0  0  0  0
  9 30  1  0  0  0  0
  9 31  1  0  0  0  0
 12 32  1  0  0  0  0
 12 33  1  0  0  0  0
 13 34  1  0  0  0  0
 13 35  1  0  0  0  0
 14 36  1  0  0  0  0
 14 37  1  0  0  0  0
 17 38  1  0  0  0  0
 18 39  1  0  0  0  0
 18 40  1  0  0  0  0
 19 41  1  0  0  0  0
 21 42  1  0  0  0  0
 25 43  1  0  0  0  0
M  END
> <r_user_dG.exp>
-6.6626190630157

$$$$
48
  -OEChem-05162309453D
 Structure written by MMmdl.
 43 46  0     0  0  0  0  0  0999 V2000
    3.5962  -50.2382    7.2860 O   0  0  0  0  0  0  0  0  0  0  0  0
    2.9915  -49.1832    6.9785 C   0  0  0  0  0  0  0  0  0  0  0  0
    3.5468  -48.0563    6.9856 O   0  0  0  0  0  0  0  0  0  0  0  0
    1.5667  -49.2814    6.6034 C   0  0  0  0  0  0  0  0  0  0  0  0
   -0.3493  -50.4961    6.2933 C   0  0  0  0  0  0  0  0  0  0  0  0
   -1.3483  -51.4866    6.2008 C   0  0  0  0  0  0  0  0  0  0  0  0
   -2.6508  -51.1171    5.7985 C   0  0  0  0  0  0  0  0  0  0  0  0
   -2.9320  -49.7715    5.4886 C   0  0  0  0  0  0  0  0  0  0  0  0
   -1.9224  -48.7928    5.5781 C   0  0  0  0  0  0  0  0  0  0  0  0
   -0.6057  -49.1301    5.9783 C   0  0  0  0  0  0  0  0  0  0  0  0
    0.6128  -48.3833    6.1734 C   0  0  0  0  0  0  0  0  0  0  0  0
    0.8068  -46.9172    5.9622 C   0  0  0  0  0  0  0  0  0  0  0  0
    0.7034  -46.1229    7.2813 C   0  0  0  0  0  0  0  0  0  0  0  0
   -0.7224  -46.0877    7.8568 C   0  0  0  0  0  0  0  0  0  0  0  0
   -1.5391  -45.3745    6.9378 O   0  0  0  0  0  0  0  0  0  0  0  0
   -2.8810  -45.1822    7.1989 C   0  0  0  0  0  0  0  0  0  0  0  0
   -5.6349  -44.5517    7.4221 C   0  0  0  0  0  0  0  0  0  0  0  0
   -4.8882  -44.0528    6.3462 C   0  0  0  0  0  0  0  0  0  0  0  0
   -3.5272  -44.3675    6.2431 C   0  0  0  0  0  0  0  0  0  0  0  0
    0.9807  -50.5349    6.6696 N   0  0  0  0  0  0  0  0  0  0  0  0
   -4.5301  -46.7432   10.1164 C   0  0  0  0  0  0  0  0  0  0  0  0
   -5.5194  -46.0063    9.4887 N   0  0  0  0  0  0  0  0  0  0  0  0
   -5.0107  -45.3807    8.3736 C   0  0  0  0  0  0  0  0  0  0  0  0
   -3.6231  -45.7297    8.3012 C   0  0  0  0  0  0  0  0  0  0  0  0
   -3.3547  -46.5895    9.4315 C   0  0  0  0  0  0  0  0  0  0  0  0
    4.4539  -48.1514    7.2515 H   0  0  0  0  0  0  0  0  0  0  0  0
   -1.1203  -52.5160    6.4348 H   0  0  0  0  0  0  0  0  0  0  0  0
   -3.4285  -51.8632    5.7286 H   0  0  0  0  0  0  0  0  0  0  0  0
   -3.9277  -49.4886    5.1805 H   0  0  0  0  0  0  0  0  0  0  0  0
   -1.8381  -48.3398    4.5793 H   0  0  0  0  0  0  0  0  0  0  0  0
   -2.2820  -48.0386    6.2936 H   0  0  0  0  0  0  0  0  0  0  0  0
    1.8021  -46.7504    5.5246 H   0  0  0  0  0  0  0  0  0  0  0  0
    0.0352  -46.5536    5.2676 H   0  0  0  0  0  0  0  0  0  0  0  0
    1.3685  -46.5890    8.0232 H   0  0  0  0  0  0  0  0  0  0  0  0
    1.0304  -45.0895    7.0937 H   0  0  0  0  0  0  0  0  0  0  0  0
   -1.1027  -47.1125    7.9797 H   0  0  0  0  0  0  0  0  0  0  0  0
   -0.7210  -45.5778    8.8315 H   0  0  0  0  0  0  0  0  0  0  0  0
   -6.6811  -44.3022    7.5206 H   0  0  0  0  0  0  0  0  0  0  0  0
   -5.3594  -43.4293    5.6009 H   0  0  0  0  0  0  0  0  0  0  0  0
   -2.9873  -43.4091    6.2373 H   0  0  0  0  0  0  0  0  0  0  0  0
   -3.3976  -44.8673    5.2718 H   0  0  0  0  0  0  0  0  0  0  0  0
   -4.6640  -47.3433   11.0043 H   0  0  0  0  0  0  0  0  0  0  0  0
   -2.4025  -47.0296    9.6884 H   0  0  0  0  0  0  0  0  0  0  0  0
  1  2  2  0  0  0  0
  2  3  1  0  0  0  0
  2  4  1  0  0  0  0
  4 11  1  0  0  0  0
  4 20  2  0  0  0  0
  5  6  2  0  0  0  0
  5 10  1  0  0  0  0
  5 20  1  0  0  0  0
  6  7  1  0  0  0  0
  7  8  2  0  0  0  0
  8  9  1  0  0  0  0
  9 10  1  0  0  0  0
 10 11  2  0  0  0  0
 11 12  1  0  0  0  0
 12 13  1  0  0  0  0
 13 14  1  0  0  0  0
 14 15  1  0  0  0  0
 15 16  1  0  0  0  0
 16 19  1  0  0  0  0
 16 24  2  0  0  0  0
 17 18  2  0  0  0  0
 17 23  1  0  0  0  0
 18 19  1  0  0  0  0
 21 22  1  0  0  0  0
 21 25  2  0  0  0  0
 22 23  2  0  0  0  0
 23 24  1  0  0  0  0
 24 25  1  0  0  0  0
  3 26  1  0  0  0  0
  6 27  1  0  0  0  0
  7 28  1  0  0  0  0
  8 29  1  0  0  0  0
  9 30  1  0  0  0  0
  9 31  1  0  0  0  0
 12 32  1  0  0  0  0
 12 33  1  0  0  0  0
 13 34  1  0  0  0  0
 13 35  1  0  0  0  0
 14 36  1  0  0  0  0
 14 37  1  0  0  0  0
 17 38  1  0  0  0  0
 18 39  1  0  0  0  0
 19 40  1  0  0  0  0
 19 41  1  0  0  0  0
 21 42  1  0  0  0  0
 25 43  1  0  0  0  0
M  END
> <r_user_dG.exp>
-6.6626190630157

$$$$
48
  -OEChem-05162309453D
 Structure written by MMmdl.
 43 46  0     0  0  0  0  0  0999 V2000
    3.5962  -50.2382    7.2860 O   0  0  0  0  0  0  0  0  0  0  0  0
    2.9915  -49.1832    6.9785 C   0  0  0  0  0  0  0  0  0  0  0  0
    3.5468  -48.0563    6.9856 O   0  0  0  0  0  0  0  0  0  0  0  0
    1.5667  -49.2814    6.6034 C   0  0  0  0  0  0  0  0  0  0  0  0
   -0.3493  -50.4961    6.2933 C   0  0  0  0  0  0  0  0  0  0  0  0
   -1.3483  -51.4866    6.2008 C   0  0  0  0  0  0  0  0  0  0  0  0
   -2.6508  -51.1171    5.7985 C   0  0  0  0  0  0  0  0  0  0  0  0
   -2.9320  -49.7715    5.4886 C   0  0  0  0  0  0  0  0  0  0  0  0
   -1.9224  -48.7928    5.5781 C   0  0  0  0  0  0  0  0  0  0  0  0
   -0.6057  -49.1301    5.9783 C   0  0  0  0  0  0  0  0  0  0  0  0
    0.6128  -48.3833    6.1734 C   0  0  0  0  0  0  0  0  0  0  0  0
    0.8068  -46.9172    5.9622 C   0  0  0  0  0  0  0  0  0  0  0  0
    0.7034  -46.1229    7.2813 C   0  0  0  0  0  0  0  0  0  0  0  0
   -0.7224  -46.0877    7.8568 C   0  0  0  0  0  0  0  0  0  0  0  0
   -1.5391  -45.3745    6.9378 O   0  0  0  0  0  0  0  0  0  0  0  0
   -2.8810  -45.1822    7.1989 C   0  0  0  0  0  0  0  0  0  0  0  0
   -5.6349  -44.5517    7.4221 C   0  0  0  0  0  0  0  0  0  0  0  0
   -4.8882  -44.0528    6.3462 C   0  0  0  0  0  0  0  0  0  0  0  0
   -3.5272  -44.3675    6.2431 C   0  0  0  0  0  0  0  0  0  0  0  0
    0.9807  -50.5349    6.6696 N   0  0  0  0  0  0  0  0  0  0  0  0
   -4.5301  -46.7432   10.1164 C   0  0  0  0  0  0  0  0  0  0  0  0
   -5.5194  -46.0063    9.4887 N   0  0  0  0  0  0  0  0  0  0  0  0
   -5.0107  -45.3807    8.3736 C   0  0  0  0  0  0  0  0  0  0  0  0
   -3.6231  -45.7297    8.3012 C   0  0  0  0  0  0  0  0  0  0  0  0
   -3.3547  -46.5895    9.4315 C   0  0  0  0  0  0  0  0  0  0  0  0
    4.4539  -48.1514    7.2515 H   0  0  0  0  0  0  0  0  0  0  0  0
   -1.1203  -52.5160    6.4348 H   0  0  0  0  0  0  0  0  0  0  0  0
   -3.4285  -51.8632    5.7286 H   0  0  0  0  0  0  0  0  0  0  0  0
   -3.9277  -49.4886    5.1805 H   0  0  0  0  0  0  0  0  0  0  0  0
   -1.8381  -48.3398    4.5793 H   0  0  0  0  0  0  0  0  0  0  0  0
   -2.2820  -48.0386    6.2936 H   0  0  0  0  0  0  0  0  0  0  0  0
    1.8021  -46.7504    5.5246 H   0  0  0  0  0  0  0  0  0  0  0  0
    0.0352  -46.5536    5.2676 H   0  0  0  0  0  0  0  0  0  0  0  0
    1.3685  -46.5890    8.0232 H   0  0  0  0  0  0  0  0  0  0  0  0
    1.0304  -45.0895    7.0937 H   0  0  0  0  0  0  0  0  0  0  0  0
   -1.1027  -47.1125    7.9797 H   0  0  0  0  0  0  0  0  0  0  0  0
   -0.7210  -45.5778    8.8315 H   0  0  0  0  0  0  0  0  0  0  0  0
   -6.0319  -43.6822    7.9666 H   0  0  0  0  0  0  0  0  0  0  0  0
   -6.4683  -45.1277    6.9935 H   0  0  0  0  0  0  0  0  0  0  0  0
   -5.3594  -43.4293    5.6009 H   0  0  0  0  0  0  0  0  0  0  0  0
   -2.9579  -43.9776    5.4123 H   0  0  0  0  0  0  0  0  0  0  0  0
   -4.6640  -47.3433   11.0043 H   0  0  0  0  0  0  0  0  0  0  0  0
   -2.4025  -47.0296    9.6884 H   0  0  0  0  0  0  0  0  0  0  0  0
  1  2  2  0  0  0  0
  2  3  1  0  0  0  0
  2  4  1  0  0  0  0
  4 11  1  0  0  0  0
  4 20  2  0  0  0  0
  5  6  2  0  0  0  0
  5 10  1  0  0  0  0
  5 20  1  0  0  0  0
  6  7  1  0  0  0  0
  7  8  2  0  0  0  0
  8  9  1  0  0  0  0
  9 10  1  0  0  0  0
 10 11  2  0  0  0  0
 11 12  1  0  0  0  0
 12 13  1  0  0  0  0
 13 14  1  0  0  0  0
 14 15  1  0  0  0  0
 15 16  1  0  0  0  0
 16 19  1  0  0  0  0
 16 24  2  0  0  0  0
 17 18  1  0  0  0  0
 17 23  1  0  0  0  0
 18 19  2  0  0  0  0
 21 22  1  0  0  0  0
 21 25  2  0  0  0  0
 22 23  2  0  0  0  0
 23 24  1  0  0  0  0
 24 25  1  0  0  0  0
  3 26  1  0  0  0  0
  6 27  1  0  0  0  0
  7 28  1  0  0  0  0
  8 29  1  0  0  0  0
  9 30  1  0  0  0  0
  9 31  1  0  0  0  0
 12 32  1  0  0  0  0
 12 33  1  0  0  0  0
 13 34  1  0  0  0  0
 13 35  1  0  0  0  0
 14 36  1  0  0  0  0
 14 37  1  0  0  0  0
 17 38  1  0  0  0  0
 17 39  1  0  0  0  0
 18 40  1  0  0  0  0
 19 41  1  0  0  0  0
 21 42  1  0  0  0  0
 25 43  1  0  0  0  0
M  END
> <r_user_dG.exp>
-6.6626190630157

$$$$
48
  -OEChem-05162309453D
 Structure written by MMmdl.
 43 46  0     0  0  0  0  0  0999 V2000
    3.5962  -50.2382    7.2860 O   0  0  0  0  0  0  0  0  0  0  0  0
    2.9915  -49.1832    6.9785 C   0  0  0  0  0  0  0  0  0  0  0  0
    3.5468  -48.0563    6.9856 O   0  0  0  0  0  0  0  0  0  0  0  0
    1.5667  -49.2814    6.6034 C   0  0  0  0  0  0  0  0  0  0  0  0
   -0.3493  -50.4961    6.2933 C   0  0  0  0  0  0  0  0  0  0  0  0
   -1.3483  -51.4866    6.2008 C   0  0  0  0  0  0  0  0  0  0  0  0
   -2.6508  -51.1171    5.7985 C   0  0  0  0  0  0  0  0  0  0  0  0
   -2.9320  -49.7715    5.4886 C   0  0  0  0  0  0  0  0  0  0  0  0
   -1.9224  -48.7928    5.5781 C   0  0  0  0  0  0  0  0  0  0  0  0
   -0.6057  -49.1301    5.9783 C   0  0  0  0  0  0  0  0  0  0  0  0
    0.6128  -48.3833    6.1734 C   0  0  0  0  0  0  0  0  0  0  0  0
    0.8068  -46.9172    5.9622 C   0  0  0  0  0  0  0  0  0  0  0  0
    0.7034  -46.1229    7.2813 C   0  0  0  0  0  0  0  0  0  0  0  0
   -0.7224  -46.0877    7.8568 C   0  0  0  0  0  0  0  0  0  0  0  0
   -1.5391  -45.3745    6.9378 O   0  0  0  0  0  0  0  0  0  0  0  0
   -2.8810  -45.1822    7.1989 C   0  0  0  0  0  0  0  0  0  0  0  0
   -5.6349  -44.5517    7.4221 C   0  0  0  0  0  0  0  0  0  0  0  0
   -4.8882  -44.0528    6.3462 C   0  0  0  0  0  0  0  0  0  0  0  0
   -3.5272  -44.3675    6.2431 C   0  0  0  0  0  0  0  0  0  0  0  0
    0.9807  -50.5349    6.6696 N   0  0  0  0  0  0  0  0  0  0  0  0
   -4.5301  -46.7432   10.1164 C   0  0  0  0  0  0  0  0  0  0  0  0
   -5.5194  -46.0063    9.4887 N   0  0  0  0  0  0  0  0  0  0  0  0
   -5.0107  -45.3807    8.3736 C   0  0  0  0  0  0  0  0  0  0  0  0
   -3.6231  -45.7297    8.3012 C   0  0  0  0  0  0  0  0  0  0  0  0
   -3.3547  -46.5895    9.4315 C   0  0  0  0  0  0  0  0  0  0  0  0
    3.0018  -50.9761    7.2169 H   0  0  0  0  0  0  0  0  0  0  0  0
    2.9201  -47.3923    6.7233 H   0  0  0  0  0  0  0  0  0  0  0  0
   -1.1203  -52.5160    6.4348 H   0  0  0  0  0  0  0  0  0  0  0  0
   -3.4285  -51.8632    5.7286 H   0  0  0  0  0  0  0  0  0  0  0  0
   -3.9277  -49.4886    5.1805 H   0  0  0  0  0  0  0  0  0  0  0  0
   -2.1565  -47.7664    5.3372 H   0  0  0  0  0  0  0  0  0  0  0  0
    1.8021  -46.7504    5.5246 H   0  0  0  0  0  0  0  0  0  0  0  0
    0.0352  -46.5536    5.2676 H   0  0  0  0  0  0  0  0  0  0  0  0
    1.3685  -46.5890    8.0232 H   0  0  0  0  0  0  0  0  0  0  0  0
    1.0304  -45.0895    7.0937 H   0  0  0  0  0  0  0  0  0  0  0  0
   -1.1027  -47.1125    7.9797 H   0  0  0  0  0  0  0  0  0  0  0  0
   -0.7210  -45.5778    8.8315 H   0  0  0  0  0  0  0  0  0  0  0  0
   -6.6811  -44.3022    7.5206 H   0  0  0  0  0  0  0  0  0  0  0  0
   -5.3594  -43.4293    5.6009 H   0  0  0  0  0  0  0  0  0  0  0  0
   -2.9579  -43.9776    5.4123 H   0  0  0  0  0  0  0  0  0  0  0  0
   -4.6640  -47.3433   11.0043 H   0  0  0  0  0  0  0  0  0  0  0  0
   -6.4671  -45.9383    9.8005 H   0  0  0  0  0  0  0  0  0  0  0  0
   -2.4025  -47.0296    9.6884 H   0  0  0  0  0  0  0  0  0  0  0  0
  1  2  1  0  0  0  0
  2  3  1  0  0  0  0
  2  4  2  0  0  0  0
  4 11  1  0  0  0  0
  4 20  1  0  0  0  0
  5  6  1  0  0  0  0
  5 10  1  0  0  0  0
  5 20  2  0  0  0  0
  6  7  2  0  0  0  0
  7  8  1  0  0  0  0
  8  9  2  0  0  0  0
  9 10  1  0  0  0  0
 10 11  2  0  0  0  0
 11 12  1  0  0  0  0
 12 13  1  0  0  0  0
 13 14  1  0  0  0  0
 14 15  1  0  0  0  0
 15 16  1  0  0  0  0
 16 19  2  0  0  0  0
 16 24  1  0  0  0  0
 17 18  2  0  0  0  0
 17 23  1  0  0  0  0
 18 19  1  0  0  0  0
 21 22  1  0  0  0  0
 21 25  2  0  0  0  0
 22 23  1  0  0  0  0
 23 24  2  0  0  0  0
 24 25  1  0  0  0  0
  1 26  1  0  0  0  0
  3 27  1  0  0  0  0
  6 28  1  0  0  0  0
  7 29  1  0  0  0  0
  8 30  1  0  0  0  0
  9 31  1  0  0  0  0
 12 32  1  0  0  0  0
 12 33  1  0  0  0  0
 13 34  1  0  0  0  0
 13 35  1  0  0  0  0
 14 36  1  0  0  0  0
 14 37  1  0  0  0  0
 17 38  1  0  0  0  0
 18 39  1  0  0  0  0
 19 40  1  0  0  0  0
 21 41  1  0  0  0  0
 22 42  1  0  0  0  0
 25 43  1  0  0  0  0
M  END
> <r_user_dG.exp>
-6.6626190630157

$$$$
48
  -OEChem-05162309453D
 Structure written by MMmdl.
 43 46  0     0  0  0  0  0  0999 V2000
    3.5962  -50.2382    7.2860 O   0  0  0  0  0  0  0  0  0  0  0  0
    2.9915  -49.1832    6.9785 C   0  0  0  0  0  0  0  0  0  0  0  0
    3.5468  -48.0563    6.9856 O   0  0  0  0  0  0  0  0  0  0  0  0
    1.5667  -49.2814    6.6034 C   0  0  0  0  0  0  0  0  0  0  0  0
   -0.3493  -50.4961    6.2933 C   0  0  0  0  0  0  0  0  0  0  0  0
   -1.3483  -51.4866    6.2008 C   0  0  0  0  0  0  0  0  0  0  0  0
   -2.6508  -51.1171    5.7985 C   0  0  0  0  0  0  0  0  0  0  0  0
   -2.9320  -49.7715    5.4886 C   0  0  0  0  0  0  0  0  0  0  0  0
   -1.9224  -48.7928    5.5781 C   0  0  0  0  0  0  0  0  0  0  0  0
   -0.6057  -49.1301    5.9783 C   0  0  0  0  0  0  0  0  0  0  0  0
    0.6128  -48.3833    6.1734 C   0  0  0  0  0  0  0  0  0  0  0  0
    0.8068  -46.9172    5.9622 C   0  0  0  0  0  0  0  0  0  0  0  0
    0.7034  -46.1229    7.2813 C   0  0  0  0  0  0  0  0  0  0  0  0
   -0.7224  -46.0877    7.8568 C   0  0  0  0  0  0  0  0  0  0  0  0
   -1.5391  -45.3745    6.9378 O   0  0  0  0  0  0  0  0  0  0  0  0
   -2.8810  -45.1822    7.1989 C   0  0  0  0  0  0  0  0  0  0  0  0
   -5.6349  -44.5517    7.4221 C   0  0  0  0  0  0  0  0  0  0  0  0
   -4.8882  -44.0528    6.3462 C   0  0  0  0  0  0  0  0  0  0  0  0
   -3.5272  -44.3675    6.2431 C   0  0  0  0  0  0  0  0  0  0  0  0
    0.9807  -50.5349    6.6696 N   0  0  0  0  0  0  0  0  0  0  0  0
   -4.5301  -46.7432   10.1164 C   0  0  0  0  0  0  0  0  0  0  0  0
   -5.5194  -46.0063    9.4887 N   0  0  0  0  0  0  0  0  0  0  0  0
   -5.0107  -45.3807    8.3736 C   0  0  0  0  0  0  0  0  0  0  0  0
   -3.6231  -45.7297    8.3012 C   0  0  0  0  0  0  0  0  0  0  0  0
   -3.3547  -46.5895    9.4315 C   0  0  0  0  0  0  0  0  0  0  0  0
    3.0018  -50.9761    7.2169 H   0  0  0  0  0  0  0  0  0  0  0  0
    2.9201  -47.3923    6.7233 H   0  0  0  0  0  0  0  0  0  0  0  0
   -1.1203  -52.5160    6.4348 H   0  0  0  0  0  0  0  0  0  0  0  0
   -3.4285  -51.8632    5.7286 H   0  0  0  0  0  0  0  0  0  0  0  0
   -3.9277  -49.4886    5.1805 H   0  0  0  0  0  0  0  0  0  0  0  0
   -2.1565  -47.7664    5.3372 H   0  0  0  0  0  0  0  0  0  0  0  0
    1.8021  -46.7504    5.5246 H   0  0  0  0  0  0  0  0  0  0  0  0
    0.0352  -46.5536    5.2676 H   0  0  0  0  0  0  0  0  0  0  0  0
    1.3685  -46.5890    8.0232 H   0  0  0  0  0  0  0  0  0  0  0  0
    1.0304  -45.0895    7.0937 H   0  0  0  0  0  0  0  0  0  0  0  0
   -1.1027  -47.1125    7.9797 H   0  0  0  0  0  0  0  0  0  0  0  0
   -0.7210  -45.5778    8.8315 H   0  0  0  0  0  0  0  0  0  0  0  0
   -6.6811  -44.3022    7.5206 H   0  0  0  0  0  0  0  0  0  0  0  0
   -5.3594  -43.4293    5.6009 H   0  0  0  0  0  0  0  0  0  0  0  0
   -2.9579  -43.9776    5.4123 H   0  0  0  0  0  0  0  0  0  0  0  0
   -4.6640  -47.3433   11.0043 H   0  0  0  0  0  0  0  0  0  0  0  0
   -2.5973  -46.1290   10.0829 H   0  0  0  0  0  0  0  0  0  0  0  0
   -2.9922  -47.5676    9.0823 H   0  0  0  0  0  0  0  0  0  0  0  0
  1  2  1  0  0  0  0
  2  3  1  0  0  0  0
  2  4  2  0  0  0  0
  4 11  1  0  0  0  0
  4 20  1  0  0  0  0
  5  6  1  0  0  0  0
  5 10  1  0  0  0  0
  5 20  2  0  0  0  0
  6  7  2  0  0  0  0
  7  8  1  0  0  0  0
  8  9  2  0  0  0  0
  9 10  1  0  0  0  0
 10 11  2  0  0  0  0
 11 12  1  0  0  0  0
 12 13  1  0  0  0  0
 13 14  1  0  0  0  0
 14 15  1  0  0  0  0
 15 16  1  0  0  0  0
 16 19  2  0  0  0  0
 16 24  1  0  0  0  0
 17 18  2  0  0  0  0
 17 23  1  0  0  0  0
 18 19  1  0  0  0  0
 21 22  2  0  0  0  0
 21 25  1  0  0  0  0
 22 23  1  0  0  0  0
 23 24  2  0  0  0  0
 24 25  1  0  0  0  0
  1 26  1  0  0  0  0
  3 27  1  0  0  0  0
  6 28  1  0  0  0  0
  7 29  1  0  0  0  0
  8 30  1  0  0  0  0
  9 31  1  0  0  0  0
 12 32  1  0  0  0  0
 12 33  1  0  0  0  0
 13 34  1  0  0  0  0
 13 35  1  0  0  0  0
 14 36  1  0  0  0  0
 14 37  1  0  0  0  0
 17 38  1  0  0  0  0
 18 39  1  0  0  0  0
 19 40  1  0  0  0  0
 21 41  1  0  0  0  0
 25 42  1  0  0  0  0
 25 43  1  0  0  0  0
M  END
> <r_user_dG.exp>
-6.6626190630157

$$$$
48
  -OEChem-05162309453D
 Structure written by MMmdl.
 43 46  0     0  0  0  0  0  0999 V2000
    3.5962  -50.2382    7.2860 O   0  0  0  0  0  0  0  0  0  0  0  0
    2.9915  -49.1832    6.9785 C   0  0  0  0  0  0  0  0  0  0  0  0
    3.5468  -48.0563    6.9856 O   0  0  0  0  0  0  0  0  0  0  0  0
    1.5667  -49.2814    6.6034 C   0  0  0  0  0  0  0  0  0  0  0  0
   -0.3493  -50.4961    6.2933 C   0  0  0  0  0  0  0  0  0  0  0  0
   -1.3483  -51.4866    6.2008 C   0  0  0  0  0  0  0  0  0  0  0  0
   -2.6508  -51.1171    5.7985 C   0  0  0  0  0  0  0  0  0  0  0  0
   -2.9320  -49.7715    5.4886 C   0  0  0  0  0  0  0  0  0  0  0  0
   -1.9224  -48.7928    5.5781 C   0  0  0  0  0  0  0  0  0  0  0  0
   -0.6057  -49.1301    5.9783 C   0  0  0  0  0  0  0  0  0  0  0  0
    0.6128  -48.3833    6.1734 C   0  0  0  0  0  0  0  0  0  0  0  0
    0.8068  -46.9172    5.9622 C   0  0  0  0  0  0  0  0  0  0  0  0
    0.7034  -46.1229    7.2813 C   0  0  0  0  0  0  0  0  0  0  0  0
   -0.7224  -46.0877    7.8568 C   0  0  0  0  0  0  0  0  0  0  0  0
   -1.5391  -45.3745    6.9378 O   0  0  0  0  0  0  0  0  0  0  0  0
   -2.8810  -45.1822    7.1989 C   0  0  0  0  0  0  0  0  0  0  0  0
   -5.6349  -44.5517    7.4221 C   0  0  0  0  0  0  0  0  0  0  0  0
   -4.8882  -44.0528    6.3462 C   0  0  0  0  0  0  0  0  0  0  0  0
   -3.5272  -44.3675    6.2431 C   0  0  0  0  0  0  0  0  0  0  0  0
    0.9807  -50.5349    6.6696 N   0  0  0  0  0  0  0  0  0  0  0  0
   -4.5301  -46.7432   10.1164 C   0  0  0  0  0  0  0  0  0  0  0  0
   -5.5194  -46.0063    9.4887 N   0  0  0  0  0  0  0  0  0  0  0  0
   -5.0107  -45.3807    8.3736 C   0  0  0  0  0  0  0  0  0  0  0  0
   -3.6231  -45.7297    8.3012 C   0  0  0  0  0  0  0  0  0  0  0  0
   -3.3547  -46.5895    9.4315 C   0  0  0  0  0  0  0  0  0  0  0  0
    3.0018  -50.9761    7.2169 H   0  0  0  0  0  0  0  0  0  0  0  0
    2.9201  -47.3923    6.7233 H   0  0  0  0  0  0  0  0  0  0  0  0
   -1.1203  -52.5160    6.4348 H   0  0  0  0  0  0  0  0  0  0  0  0
   -3.4285  -51.8632    5.7286 H   0  0  0  0  0  0  0  0  0  0  0  0
   -3.9277  -49.4886    5.1805 H   0  0  0  0  0  0  0  0  0  0  0  0
   -2.1565  -47.7664    5.3372 H   0  0  0  0  0  0  0  0  0  0  0  0
    1.8021  -46.7504    5.5246 H   0  0  0  0  0  0  0  0  0  0  0  0
    0.0352  -46.5536    5.2676 H   0  0  0  0  0  0  0  0  0  0  0  0
    1.3685  -46.5890    8.0232 H   0  0  0  0  0  0  0  0  0  0  0  0
    1.0304  -45.0895    7.0937 H   0  0  0  0  0  0  0  0  0  0  0  0
   -1.1027  -47.1125    7.9797 H   0  0  0  0  0  0  0  0  0  0  0  0
   -0.7210  -45.5778    8.8315 H   0  0  0  0  0  0  0  0  0  0  0  0
   -6.6811  -44.3022    7.5206 H   0  0  0  0  0  0  0  0  0  0  0  0
   -5.3594  -43.4293    5.6009 H   0  0  0  0  0  0  0  0  0  0  0  0
   -2.9579  -43.9776    5.4123 H   0  0  0  0  0  0  0  0  0  0  0  0
   -4.4041  -46.3862   11.1492 H   0  0  0  0  0  0  0  0  0  0  0  0
   -4.8136  -47.8060   10.1278 H   0  0  0  0  0  0  0  0  0  0  0  0
   -2.4025  -47.0296    9.6884 H   0  0  0  0  0  0  0  0  0  0  0  0
  1  2  1  0  0  0  0
  2  3  1  0  0  0  0
  2  4  2  0  0  0  0
  4 11  1  0  0  0  0
  4 20  1  0  0  0  0
  5  6  1  0  0  0  0
  5 10  1  0  0  0  0
  5 20  2  0  0  0  0
  6  7  2  0  0  0  0
  7  8  1  0  0  0  0
  8  9  2  0  0  0  0
  9 10  1  0  0  0  0
 10 11  2  0  0  0  0
 11 12  1  0  0  0  0
 12 13  1  0  0  0  0
 13 14  1  0  0  0  0
 14 15  1  0  0  0  0
 15 16  1  0  0  0  0
 16 19  2  0  0  0  0
 16 24  1  0  0  0  0
 17 18  2  0  0  0  0
 17 23  1  0  0  0  0
 18 19  1  0  0  0  0
 21 22  1  0  0  0  0
 21 25  1  0  0  0  0
 22 23  2  0  0  0  0
 23 24  1  0  0  0  0
 24 25  2  0  0  0  0
  1 26  1  0  0  0  0
  3 27  1  0  0  0  0
  6 28  1  0  0  0  0
  7 29  1  0  0  0  0
  8 30  1  0  0  0  0
  9 31  1  0  0  0  0
 12 32  1  0  0  0  0
 12 33  1  0  0  0  0
 13 34  1  0  0  0  0
 13 35  1  0  0  0  0
 14 36  1  0  0  0  0
 14 37  1  0  0  0  0
 17 38  1  0  0  0  0
 18 39  1  0  0  0  0
 19 40  1  0  0  0  0
 21 41  1  0  0  0  0
 21 42  1  0  0  0  0
 25 43  1  0  0  0  0
M  END
> <r_user_dG.exp>
-6.6626190630157

$$$$
48
  -OEChem-05162309453D
 Structure written by MMmdl.
 43 46  0     1  0  0  0  0  0999 V2000
    3.5962  -50.2382    7.2860 O   0  0  0  0  0  0  0  0  0  0  0  0
    2.9915  -49.1832    6.9785 C   0  0  0  0  0  0  0  0  0  0  0  0
    3.5468  -48.0563    6.9856 O   0  0  0  0  0  0  0  0  0  0  0  0
    1.5667  -49.2814    6.6034 C   0  0  0  0  0  0  0  0  0  0  0  0
   -0.3493  -50.4961    6.2933 C   0  0  0  0  0  0  0  0  0  0  0  0
   -1.3483  -51.4866    6.2008 C   0  0  0  0  0  0  0  0  0  0  0  0
   -2.6508  -51.1171    5.7985 C   0  0  0  0  0  0  0  0  0  0  0  0
   -2.9320  -49.7715    5.4886 C   0  0  0  0  0  0  0  0  0  0  0  0
   -1.9224  -48.7928    5.5781 C   0  0  0  0  0  0  0  0  0  0  0  0
   -0.6057  -49.1301    5.9783 C   0  0  0  0  0  0  0  0  0  0  0  0
    0.6128  -48.3833    6.1734 C   0  0  0  0  0  0  0  0  0  0  0  0
    0.8068  -46.9172    5.9622 C   0  0  0  0  0  0  0  0  0  0  0  0
    0.7034  -46.1229    7.2813 C   0  0  0  0  0  0  0  0  0  0  0  0
   -0.7224  -46.0877    7.8568 C   0  0  0  0  0  0  0  0  0  0  0  0
   -1.5391  -45.3745    6.9378 O   0  0  0  0  0  0  0  0  0  0  0  0
   -2.8810  -45.1822    7.1989 C   0  0  0  0  0  0  0  0  0  0  0  0
   -5.6349  -44.5517    7.4221 C   0  0  0  0  0  0  0  0  0  0  0  0
   -4.8882  -44.0528    6.3462 C   0  0  0  0  0  0  0  0  0  0  0  0
   -3.5272  -44.3675    6.2431 C   0  0  0  0  0  0  0  0  0  0  0  0
    0.9807  -50.5349    6.6696 N   0  0  0  0  0  0  0  0  0  0  0  0
   -4.5301  -46.7432   10.1164 C   0  0  0  0  0  0  0  0  0  0  0  0
   -5.5194  -46.0063    9.4887 N   0  0  0  0  0  0  0  0  0  0  0  0
   -5.0107  -45.3807    8.3736 C   0  0  0  0  0  0  0  0  0  0  0  0
   -3.6231  -45.7297    8.3012 C   0  0  3  0  0  0  0  0  0  0  0  0
   -3.3547  -46.5895    9.4315 C   0  0  0  0  0  0  0  0  0  0  0  0
    3.0018  -50.9761    7.2169 H   0  0  0  0  0  0  0  0  0  0  0  0
    2.9201  -47.3923    6.7233 H   0  0  0  0  0  0  0  0  0  0  0  0
   -1.1203  -52.5160    6.4348 H   0  0  0  0  0  0  0  0  0  0  0  0
   -3.4285  -51.8632    5.7286 H   0  0  0  0  0  0  0  0  0  0  0  0
   -3.9277  -49.4886    5.1805 H   0  0  0  0  0  0  0  0  0  0  0  0
   -2.1565  -47.7664    5.3372 H   0  0  0  0  0  0  0  0  0  0  0  0
    1.8021  -46.7504    5.5246 H   0  0  0  0  0  0  0  0  0  0  0  0
    0.0352  -46.5536    5.2676 H   0  0  0  0  0  0  0  0  0  0  0  0
    1.3685  -46.5890    8.0232 H   0  0  0  0  0  0  0  0  0  0  0  0
    1.0304  -45.0895    7.0937 H   0  0  0  0  0  0  0  0  0  0  0  0
   -1.1027  -47.1125    7.9797 H   0  0  0  0  0  0  0  0  0  0  0  0
   -0.7210  -45.5778    8.8315 H   0  0  0  0  0  0  0  0  0  0  0  0
   -6.6811  -44.3022    7.5206 H   0  0  0  0  0  0  0  0  0  0  0  0
   -5.3594  -43.4293    5.6009 H   0  0  0  0  0  0  0  0  0  0  0  0
   -2.9579  -43.9776    5.4123 H   0  0  0  0  0  0  0  0  0  0  0  0
   -4.6640  -47.3433   11.0043 H   0  0  0  0  0  0  0  0  0  0  0  0
   -3.3694  -44.8493    8.9100 H   0  0  0  0  0  0  0  0  0  0  0  0
   -2.4025  -47.0296    9.6884 H   0  0  0  0  0  0  0  0  0  0  0  0
  1  2  1  0  0  0  0
  2  3  1  0  0  0  0
  2  4  2  0  0  0  0
  4 11  1  0  0  0  0
  4 20  1  0  0  0  0
  5  6  1  0  0  0  0
  5 10  1  0  0  0  0
  5 20  2  0  0  0  0
  6  7  2  0  0  0  0
  7  8  1  0  0  0  0
  8  9  2  0  0  0  0
  9 10  1  0  0  0  0
 10 11  2  0  0  0  0
 11 12  1  0  0  0  0
 12 13  1  0  0  0  0
 13 14  1  0  0  0  0
 14 15  1  0  0  0  0
 15 16  1  0  0  0  0
 16 19  2  0  0  0  0
 16 24  1  0  0  0  0
 17 18  2  0  0  0  0
 17 23  1  0  0  0  0
 18 19  1  0  0  0  0
 21 22  1  0  0  0  0
 21 25  2  0  0  0  0
 22 23  2  0  0  0  0
 23 24  1  0  0  0  0
 24 25  1  0  0  0  0
  1 26  1  0  0  0  0
  3 27  1  0  0  0  0
  6 28  1  0  0  0  0
  7 29  1  0  0  0  0
  8 30  1  0  0  0  0
  9 31  1  0  0  0  0
 12 32  1  0  0  0  0
 12 33  1  0  0  0  0
 13 34  1  0  0  0  0
 13 35  1  0  0  0  0
 14 36  1  0  0  0  0
 14 37  1  0  0  0  0
 17 38  1  0  0  0  0
 18 39  1  0  0  0  0
 19 40  1  0  0  0  0
 21 41  1  0  0  0  0
 24 42  1  0  0  0  0
 25 43  1  0  0  0  0
M  END
> <r_user_dG.exp>
-6.6626190630157

$$$$
48
  -OEChem-05162309453D
 Structure written by MMmdl.
 43 46  0     1  0  0  0  0  0999 V2000
    3.5962  -50.2382    7.2860 O   0  0  0  0  0  0  0  0  0  0  0  0
    2.9915  -49.1832    6.9785 C   0  0  0  0  0  0  0  0  0  0  0  0
    3.5468  -48.0563    6.9856 O   0  0  0  0  0  0  0  0  0  0  0  0
    1.5667  -49.2814    6.6034 C   0  0  0  0  0  0  0  0  0  0  0  0
   -0.3493  -50.4961    6.2933 C   0  0  0  0  0  0  0  0  0  0  0  0
   -1.3483  -51.4866    6.2008 C   0  0  0  0  0  0  0  0  0  0  0  0
   -2.6508  -51.1171    5.7985 C   0  0  0  0  0  0  0  0  0  0  0  0
   -2.9320  -49.7715    5.4886 C   0  0  0  0  0  0  0  0  0  0  0  0
   -1.9224  -48.7928    5.5781 C   0  0  0  0  0  0  0  0  0  0  0  0
   -0.6057  -49.1301    5.9783 C   0  0  0  0  0  0  0  0  0  0  0  0
    0.6128  -48.3833    6.1734 C   0  0  0  0  0  0  0  0  0  0  0  0
    0.8068  -46.9172    5.9622 C   0  0  0  0  0  0  0  0  0  0  0  0
    0.7034  -46.1229    7.2813 C   0  0  0  0  0  0  0  0  0  0  0  0
   -0.7224  -46.0877    7.8568 C   0  0  0  0  0  0  0  0  0  0  0  0
   -1.5391  -45.3745    6.9378 O   0  0  0  0  0  0  0  0  0  0  0  0
   -2.8810  -45.1822    7.1989 C   0  0  0  0  0  0  0  0  0  0  0  0
   -5.6349  -44.5517    7.4221 C   0  0  0  0  0  0  0  0  0  0  0  0
   -4.8882  -44.0528    6.3462 C   0  0  0  0  0  0  0  0  0  0  0  0
   -3.5272  -44.3675    6.2431 C   0  0  0  0  0  0  0  0  0  0  0  0
    0.9807  -50.5349    6.6696 N   0  0  0  0  0  0  0  0  0  0  0  0
   -4.5301  -46.7432   10.1164 C   0  0  0  0  0  0  0  0  0  0  0  0
   -5.5194  -46.0063    9.4887 N   0  0  0  0  0  0  0  0  0  0  0  0
   -5.0107  -45.3807    8.3736 C   0  0  3  0  0  0  0  0  0  0  0  0
   -3.6231  -45.7297    8.3012 C   0  0  0  0  0  0  0  0  0  0  0  0
   -3.3547  -46.5895    9.4315 C   0  0  0  0  0  0  0  0  0  0  0  0
    3.0018  -50.9761    7.2169 H   0  0  0  0  0  0  0  0  0  0  0  0
    2.9201  -47.3923    6.7233 H   0  0  0  0  0  0  0  0  0  0  0  0
   -1.1203  -52.5160    6.4348 H   0  0  0  0  0  0  0  0  0  0  0  0
   -3.4285  -51.8632    5.7286 H   0  0  0  0  0  0  0  0  0  0  0  0
   -3.9277  -49.4886    5.1805 H   0  0  0  0  0  0  0  0  0  0  0  0
   -2.1565  -47.7664    5.3372 H   0  0  0  0  0  0  0  0  0  0  0  0
    1.8021  -46.7504    5.5246 H   0  0  0  0  0  0  0  0  0  0  0  0
    0.0352  -46.5536    5.2676 H   0  0  0  0  0  0  0  0  0  0  0  0
    1.3685  -46.5890    8.0232 H   0  0  0  0  0  0  0  0  0  0  0  0
    1.0304  -45.0895    7.0937 H   0  0  0  0  0  0  0  0  0  0  0  0
   -1.1027  -47.1125    7.9797 H   0  0  0  0  0  0  0  0  0  0  0  0
   -0.7210  -45.5778    8.8315 H   0  0  0  0  0  0  0  0  0  0  0  0
   -6.6811  -44.3022    7.5206 H   0  0  0  0  0  0  0  0  0  0  0  0
   -5.3594  -43.4293    5.6009 H   0  0  0  0  0  0  0  0  0  0  0  0
   -2.9579  -43.9776    5.4123 H   0  0  0  0  0  0  0  0  0  0  0  0
   -4.6640  -47.3433   11.0043 H   0  0  0  0  0  0  0  0  0  0  0  0
   -4.7593  -44.4984    8.9806 H   0  0  0  0  0  0  0  0  0  0  0  0
   -2.4025  -47.0296    9.6884 H   0  0  0  0  0  0  0  0  0  0  0  0
  1  2  1  0  0  0  0
  2  3  1  0  0  0  0
  2  4  2  0  0  0  0
  4 11  1  0  0  0  0
  4 20  1  0  0  0  0
  5  6  1  0  0  0  0
  5 10  1  0  0  0  0
  5 20  2  0  0  0  0
  6  7  2  0  0  0  0
  7  8  1  0  0  0  0
  8  9  2  0  0  0  0
  9 10  1  0  0  0  0
 10 11  2  0  0  0  0
 11 12  1  0  0  0  0
 12 13  1  0  0  0  0
 13 14  1  0  0  0  0
 14 15  1  0  0  0  0
 15 16  1  0  0  0  0
 16 19  2  0  0  0  0
 16 24  1  0  0  0  0
 17 18  2  0  0  0  0
 17 23  1  0  0  0  0
 18 19  1  0  0  0  0
 21 22  2  0  0  0  0
 21 25  1  0  0  0  0
 22 23  1  0  0  0  0
 23 24  1  0  0  0  0
 24 25  2  0  0  0  0
  1 26  1  0  0  0  0
  3 27  1  0  0  0  0
  6 28  1  0  0  0  0
  7 29  1  0  0  0  0
  8 30  1  0  0  0  0
  9 31  1  0  0  0  0
 12 32  1  0  0  0  0
 12 33  1  0  0  0  0
 13 34  1  0  0  0  0
 13 35  1  0  0  0  0
 14 36  1  0  0  0  0
 14 37  1  0  0  0  0
 17 38  1  0  0  0  0
 18 39  1  0  0  0  0
 19 40  1  0  0  0  0
 21 41  1  0  0  0  0
 23 42  1  0  0  0  0
 25 43  1  0  0  0  0
M  END
> <r_user_dG.exp>
-6.6626190630157

$$$$
48
  -OEChem-05162309453D
 Structure written by MMmdl.
 43 46  0     1  0  0  0  0  0999 V2000
    3.5962  -50.2382    7.2860 O   0  0  0  0  0  0  0  0  0  0  0  0
    2.9915  -49.1832    6.9785 C   0  0  0  0  0  0  0  0  0  0  0  0
    3.5468  -48.0563    6.9856 O   0  0  0  0  0  0  0  0  0  0  0  0
    1.5667  -49.2814    6.6034 C   0  0  0  0  0  0  0  0  0  0  0  0
   -0.3493  -50.4961    6.2933 C   0  0  0  0  0  0  0  0  0  0  0  0
   -1.3483  -51.4866    6.2008 C   0  0  0  0  0  0  0  0  0  0  0  0
   -2.6508  -51.1171    5.7985 C   0  0  0  0  0  0  0  0  0  0  0  0
   -2.9320  -49.7715    5.4886 C   0  0  0  0  0  0  0  0  0  0  0  0
   -1.9224  -48.7928    5.5781 C   0  0  0  0  0  0  0  0  0  0  0  0
   -0.6057  -49.1301    5.9783 C   0  0  0  0  0  0  0  0  0  0  0  0
    0.6128  -48.3833    6.1734 C   0  0  0  0  0  0  0  0  0  0  0  0
    0.8068  -46.9172    5.9622 C   0  0  0  0  0  0  0  0  0  0  0  0
    0.7034  -46.1229    7.2813 C   0  0  0  0  0  0  0  0  0  0  0  0
   -0.7224  -46.0877    7.8568 C   0  0  0  0  0  0  0  0  0  0  0  0
   -1.5391  -45.3745    6.9378 O   0  0  0  0  0  0  0  0  0  0  0  0
   -2.8810  -45.1822    7.1989 C   0  0  3  0  0  0  0  0  0  0  0  0
   -5.6349  -44.5517    7.4221 C   0  0  0  0  0  0  0  0  0  0  0  0
   -4.8882  -44.0528    6.3462 C   0  0  0  0  0  0  0  0  0  0  0  0
   -3.5272  -44.3675    6.2431 C   0  0  0  0  0  0  0  0  0  0  0  0
    0.9807  -50.5349    6.6696 N   0  0  0  0  0  0  0  0  0  0  0  0
   -4.5301  -46.7432   10.1164 C   0  0  0  0  0  0  0  0  0  0  0  0
   -5.5194  -46.0063    9.4887 N   0  0  0  0  0  0  0  0  0  0  0  0
   -5.0107  -45.3807    8.3736 C   0  0  0  0  0  0  0  0  0  0  0  0
   -3.6231  -45.7297    8.3012 C   0  0  0  0  0  0  0  0  0  0  0  0
   -3.3547  -46.5895    9.4315 C   0  0  0  0  0  0  0  0  0  0  0  0
    3.0018  -50.9761    7.2169 H   0  0  0  0  0  0  0  0  0  0  0  0
    2.9201  -47.3923    6.7233 H   0  0  0  0  0  0  0  0  0  0  0  0
   -1.1203  -52.5160    6.4348 H   0  0  0  0  0  0  0  0  0  0  0  0
   -3.4285  -51.8632    5.7286 H   0  0  0  0  0  0  0  0  0  0  0  0
   -3.9277  -49.4886    5.1805 H   0  0  0  0  0  0  0  0  0  0  0  0
   -2.1565  -47.7664    5.3372 H   0  0  0  0  0  0  0  0  0  0  0  0
    1.8021  -46.7504    5.5246 H   0  0  0  0  0  0  0  0  0  0  0  0
    0.0352  -46.5536    5.2676 H   0  0  0  0  0  0  0  0  0  0  0  0
    1.3685  -46.5890    8.0232 H   0  0  0  0  0  0  0  0  0  0  0  0
    1.0304  -45.0895    7.0937 H   0  0  0  0  0  0  0  0  0  0  0  0
   -1.1027  -47.1125    7.9797 H   0  0  0  0  0  0  0  0  0  0  0  0
   -0.7210  -45.5778    8.8315 H   0  0  0  0  0  0  0  0  0  0  0  0
   -2.6400  -44.2924    7.7991 H   0  0  0  0  0  0  0  0  0  0  0  0
   -6.6811  -44.3022    7.5206 H   0  0  0  0  0  0  0  0  0  0  0  0
   -5.3594  -43.4293    5.6009 H   0  0  0  0  0  0  0  0  0  0  0  0
   -2.9579  -43.9776    5.4123 H   0  0  0  0  0  0  0  0  0  0  0  0
   -4.6640  -47.3433   11.0043 H   0  0  0  0  0  0  0  0  0  0  0  0
   -2.4025  -47.0296    9.6884 H   0  0  0  0  0  0  0  0  0  0  0  0
  1  2  1  0  0  0  0
  2  3  1  0  0  0  0
  2  4  2  0  0  0  0
  4 11  1  0  0  0  0
  4 20  1  0  0  0  0
  5  6  1  0  0  0  0
  5 10  1  0  0  0  0
  5 20  2  0  0  0  0
  6  7  2  0  0  0  0
  7  8  1  0  0  0  0
  8  9  2  0  0  0  0
  9 10  1  0  0  0  0
 10 11  2  0  0  0  0
 11 12  1  0  0  0  0
 12 13  1  0  0  0  0
 13 14  1  0  0  0  0
 14 15  1  0  0  0  0
 15 16  1  0  0  0  0
 16 19  1  0  0  0  0
 16 24  1  0  0  0  0
 17 18  1  0  0  0  0
 17 23  2  0  0  0  0
 18 19  2  0  0  0  0
 21 22  2  0  0  0  0
 21 25  1  0  0  0  0
 22 23  1  0  0  0  0
 23 24  1  0  0  0  0
 24 25  2  0  0  0  0
  1 26  1  0  0  0  0
  3 27  1  0  0  0  0
  6 28  1  0  0  0  0
  7 29  1  0  0  0  0
  8 30  1  0  0  0  0
  9 31  1  0  0  0  0
 12 32  1  0  0  0  0
 12 33  1  0  0  0  0
 13 34  1  0  0  0  0
 13 35  1  0  0  0  0
 14 36  1  0  0  0  0
 14 37  1  0  0  0  0
 16 38  1  0  0  0  0
 17 39  1  0  0  0  0
 18 40  1  0  0  0  0
 19 41  1  0  0  0  0
 21 42  1  0  0  0  0
 25 43  1  0  0  0  0
M  END
> <r_user_dG.exp>
-6.6626190630157

$$$$
48
  -OEChem-05162309453D
 Structure written by MMmdl.
 43 46  0     0  0  0  0  0  0999 V2000
    3.5962  -50.2382    7.2860 O   0  0  0  0  0  0  0  0  0  0  0  0
    2.9915  -49.1832    6.9785 C   0  0  0  0  0  0  0  0  0  0  0  0
    3.5468  -48.0563    6.9856 O   0  0  0  0  0  0  0  0  0  0  0  0
    1.5667  -49.2814    6.6034 C   0  0  0  0  0  0  0  0  0  0  0  0
   -0.3493  -50.4961    6.2933 C   0  0  0  0  0  0  0  0  0  0  0  0
   -1.3483  -51.4866    6.2008 C   0  0  0  0  0  0  0  0  0  0  0  0
   -2.6508  -51.1171    5.7985 C   0  0  0  0  0  0  0  0  0  0  0  0
   -2.9320  -49.7715    5.4886 C   0  0  0  0  0  0  0  0  0  0  0  0
   -1.9224  -48.7928    5.5781 C   0  0  0  0  0  0  0  0  0  0  0  0
   -0.6057  -49.1301    5.9783 C   0  0  0  0  0  0  0  0  0  0  0  0
    0.6128  -48.3833    6.1734 C   0  0  0  0  0  0  0  0  0  0  0  0
    0.8068  -46.9172    5.9622 C   0  0  0  0  0  0  0  0  0  0  0  0
    0.7034  -46.1229    7.2813 C   0  0  0  0  0  0  0  0  0  0  0  0
   -0.7224  -46.0877    7.8568 C   0  0  0  0  0  0  0  0  0  0  0  0
   -1.5391  -45.3745    6.9378 O   0  0  0  0  0  0  0  0  0  0  0  0
   -2.8810  -45.1822    7.1989 C   0  0  0  0  0  0  0  0  0  0  0  0
   -5.6349  -44.5517    7.4221 C   0  0  0  0  0  0  0  0  0  0  0  0
   -4.8882  -44.0528    6.3462 C   0  0  0  0  0  0  0  0  0  0  0  0
   -3.5272  -44.3675    6.2431 C   0  0  0  0  0  0  0  0  0  0  0  0
    0.9807  -50.5349    6.6696 N   0  0  0  0  0  0  0  0  0  0  0  0
   -4.5301  -46.7432   10.1164 C   0  0  0  0  0  0  0  0  0  0  0  0
   -5.5194  -46.0063    9.4887 N   0  0  0  0  0  0  0  0  0  0  0  0
   -5.0107  -45.3807    8.3736 C   0  0  0  0  0  0  0  0  0  0  0  0
   -3.6231  -45.7297    8.3012 C   0  0  0  0  0  0  0  0  0  0  0  0
   -3.3547  -46.5895    9.4315 C   0  0  0  0  0  0  0  0  0  0  0  0
    3.0018  -50.9761    7.2169 H   0  0  0  0  0  0  0  0  0  0  0  0
    2.9201  -47.3923    6.7233 H   0  0  0  0  0  0  0  0  0  0  0  0
   -1.1203  -52.5160    6.4348 H   0  0  0  0  0  0  0  0  0  0  0  0
   -3.4285  -51.8632    5.7286 H   0  0  0  0  0  0  0  0  0  0  0  0
   -3.9277  -49.4886    5.1805 H   0  0  0  0  0  0  0  0  0  0  0  0
   -2.1565  -47.7664    5.3372 H   0  0  0  0  0  0  0  0  0  0  0  0
    1.8021  -46.7504    5.5246 H   0  0  0  0  0  0  0  0  0  0  0  0
    0.0352  -46.5536    5.2676 H   0  0  0  0  0  0  0  0  0  0  0  0
    1.3685  -46.5890    8.0232 H   0  0  0  0  0  0  0  0  0  0  0  0
    1.0304  -45.0895    7.0937 H   0  0  0  0  0  0  0  0  0  0  0  0
   -1.1027  -47.1125    7.9797 H   0  0  0  0  0  0  0  0  0  0  0  0
   -0.7210  -45.5778    8.8315 H   0  0  0  0  0  0  0  0  0  0  0  0
   -6.6811  -44.3022    7.5206 H   0  0  0  0  0  0  0  0  0  0  0  0
   -5.3706  -44.4163    5.4269 H   0  0  0  0  0  0  0  0  0  0  0  0
   -4.9600  -42.9560    6.3889 H   0  0  0  0  0  0  0  0  0  0  0  0
   -2.9579  -43.9776    5.4123 H   0  0  0  0  0  0  0  0  0  0  0  0
   -4.6640  -47.3433   11.0043 H   0  0  0  0  0  0  0  0  0  0  0  0
   -2.4025  -47.0296    9.6884 H   0  0  0  0  0  0  0  0  0  0  0  0
  1  2  1  0  0  0  0
  2  3  1  0  0  0  0
  2  4  2  0  0  0  0
  4 11  1  0  0  0  0
  4 20  1  0  0  0  0
  5  6  1  0  0  0  0
  5 10  1  0  0  0  0
  5 20  2  0  0  0  0
  6  7  2  0  0  0  0
  7  8  1  0  0  0  0
  8  9  2  0  0  0  0
  9 10  1  0  0  0  0
 10 11  2  0  0  0  0
 11 12  1  0  0  0  0
 12 13  1  0  0  0  0
 13 14  1  0  0  0  0
 14 15  1  0  0  0  0
 15 16  1  0  0  0  0
 16 19  2  0  0  0  0
 16 24  1  0  0  0  0
 17 18  1  0  0  0  0
 17 23  2  0  0  0  0
 18 19  1  0  0  0  0
 21 22  2  0  0  0  0
 21 25  1  0  0  0  0
 22 23  1  0  0  0  0
 23 24  1  0  0  0  0
 24 25  2  0  0  0  0
  1 26  1  0  0  0  0
  3 27  1  0  0  0  0
  6 28  1  0  0  0  0
  7 29  1  0  0  0  0
  8 30  1  0  0  0  0
  9 31  1  0  0  0  0
 12 32  1  0  0  0  0
 12 33  1  0  0  0  0
 13 34  1  0  0  0  0
 13 35  1  0  0  0  0
 14 36  1  0  0  0  0
 14 37  1  0  0  0  0
 17 38  1  0  0  0  0
 18 39  1  0  0  0  0
 18 40  1  0  0  0  0
 19 41  1  0  0  0  0
 21 42  1  0  0  0  0
 25 43  1  0  0  0  0
M  END
> <r_user_dG.exp>
-6.6626190630157

$$$$
48
  -OEChem-05162309453D
 Structure written by MMmdl.
 43 46  0     0  0  0  0  0  0999 V2000
    3.5962  -50.2382    7.2860 O   0  0  0  0  0  0  0  0  0  0  0  0
    2.9915  -49.1832    6.9785 C   0  0  0  0  0  0  0  0  0  0  0  0
    3.5468  -48.0563    6.9856 O   0  0  0  0  0  0  0  0  0  0  0  0
    1.5667  -49.2814    6.6034 C   0  0  0  0  0  0  0  0  0  0  0  0
   -0.3493  -50.4961    6.2933 C   0  0  0  0  0  0  0  0  0  0  0  0
   -1.3483  -51.4866    6.2008 C   0  0  0  0  0  0  0  0  0  0  0  0
   -2.6508  -51.1171    5.7985 C   0  0  0  0  0  0  0  0  0  0  0  0
   -2.9320  -49.7715    5.4886 C   0  0  0  0  0  0  0  0  0  0  0  0
   -1.9224  -48.7928    5.5781 C   0  0  0  0  0  0  0  0  0  0  0  0
   -0.6057  -49.1301    5.9783 C   0  0  0  0  0  0  0  0  0  0  0  0
    0.6128  -48.3833    6.1734 C   0  0  0  0  0  0  0  0  0  0  0  0
    0.8068  -46.9172    5.9622 C   0  0  0  0  0  0  0  0  0  0  0  0
    0.7034  -46.1229    7.2813 C   0  0  0  0  0  0  0  0  0  0  0  0
   -0.7224  -46.0877    7.8568 C   0  0  0  0  0  0  0  0  0  0  0  0
   -1.5391  -45.3745    6.9378 O   0  0  0  0  0  0  0  0  0  0  0  0
   -2.8810  -45.1822    7.1989 C   0  0  0  0  0  0  0  0  0  0  0  0
   -5.6349  -44.5517    7.4221 C   0  0  0  0  0  0  0  0  0  0  0  0
   -4.8882  -44.0528    6.3462 C   0  0  0  0  0  0  0  0  0  0  0  0
   -3.5272  -44.3675    6.2431 C   0  0  0  0  0  0  0  0  0  0  0  0
    0.9807  -50.5349    6.6696 N   0  0  0  0  0  0  0  0  0  0  0  0
   -4.5301  -46.7432   10.1164 C   0  0  0  0  0  0  0  0  0  0  0  0
   -5.5194  -46.0063    9.4887 N   0  0  0  0  0  0  0  0  0  0  0  0
   -5.0107  -45.3807    8.3736 C   0  0  0  0  0  0  0  0  0  0  0  0
   -3.6231  -45.7297    8.3012 C   0  0  0  0  0  0  0  0  0  0  0  0
   -3.3547  -46.5895    9.4315 C   0  0  0  0  0  0  0  0  0  0  0  0
    3.0018  -50.9761    7.2169 H   0  0  0  0  0  0  0  0  0  0  0  0
    2.9201  -47.3923    6.7233 H   0  0  0  0  0  0  0  0  0  0  0  0
   -1.1203  -52.5160    6.4348 H   0  0  0  0  0  0  0  0  0  0  0  0
   -3.4285  -51.8632    5.7286 H   0  0  0  0  0  0  0  0  0  0  0  0
   -3.9277  -49.4886    5.1805 H   0  0  0  0  0  0  0  0  0  0  0  0
   -2.1565  -47.7664    5.3372 H   0  0  0  0  0  0  0  0  0  0  0  0
    1.8021  -46.7504    5.5246 H   0  0  0  0  0  0  0  0  0  0  0  0
    0.0352  -46.5536    5.2676 H   0  0  0  0  0  0  0  0  0  0  0  0
    1.3685  -46.5890    8.0232 H   0  0  0  0  0  0  0  0  0  0  0  0
    1.0304  -45.0895    7.0937 H   0  0  0  0  0  0  0  0  0  0  0  0
   -1.1027  -47.1125    7.9797 H   0  0  0  0  0  0  0  0  0  0  0  0
   -0.7210  -45.5778    8.8315 H   0  0  0  0  0  0  0  0  0  0  0  0
   -6.6811  -44.3022    7.5206 H   0  0  0  0  0  0  0  0  0  0  0  0
   -5.3594  -43.4293    5.6009 H   0  0  0  0  0  0  0  0  0  0  0  0
   -2.9873  -43.4091    6.2373 H   0  0  0  0  0  0  0  0  0  0  0  0
   -3.3976  -44.8673    5.2718 H   0  0  0  0  0  0  0  0  0  0  0  0
   -4.6640  -47.3433   11.0043 H   0  0  0  0  0  0  0  0  0  0  0  0
   -2.4025  -47.0296    9.6884 H   0  0  0  0  0  0  0  0  0  0  0  0
  1  2  1  0  0  0  0
  2  3  1  0  0  0  0
  2  4  2  0  0  0  0
  4 11  1  0  0  0  0
  4 20  1  0  0  0  0
  5  6  1  0  0  0  0
  5 10  1  0  0  0  0
  5 20  2  0  0  0  0
  6  7  2  0  0  0  0
  7  8  1  0  0  0  0
  8  9  2  0  0  0  0
  9 10  1  0  0  0  0
 10 11  2  0  0  0  0
 11 12  1  0  0  0  0
 12 13  1  0  0  0  0
 13 14  1  0  0  0  0
 14 15  1  0  0  0  0
 15 16  1  0  0  0  0
 16 19  1  0  0  0  0
 16 24  2  0  0  0  0
 17 18  2  0  0  0  0
 17 23  1  0  0  0  0
 18 19  1  0  0  0  0
 21 22  1  0  0  0  0
 21 25  2  0  0  0  0
 22 23  2  0  0  0  0
 23 24  1  0  0  0  0
 24 25  1  0  0  0  0
  1 26  1  0  0  0  0
  3 27  1  0  0  0  0
  6 28  1  0  0  0  0
  7 29  1  0  0  0  0
  8 30  1  0  0  0  0
  9 31  1  0  0  0  0
 12 32  1  0  0  0  0
 12 33  1  0  0  0  0
 13 34  1  0  0  0  0
 13 35  1  0  0  0  0
 14 36  1  0  0  0  0
 14 37  1  0  0  0  0
 17 38  1  0  0  0  0
 18 39  1  0  0  0  0
 19 40  1  0  0  0  0
 19 41  1  0  0  0  0
 21 42  1  0  0  0  0
 25 43  1  0  0  0  0
M  END
> <r_user_dG.exp>
-6.6626190630157

$$$$
48
  -OEChem-05162309453D
 Structure written by MMmdl.
 43 46  0     0  0  0  0  0  0999 V2000
    3.5962  -50.2382    7.2860 O   0  0  0  0  0  0  0  0  0  0  0  0
    2.9915  -49.1832    6.9785 C   0  0  0  0  0  0  0  0  0  0  0  0
    3.5468  -48.0563    6.9856 O   0  0  0  0  0  0  0  0  0  0  0  0
    1.5667  -49.2814    6.6034 C   0  0  0  0  0  0  0  0  0  0  0  0
   -0.3493  -50.4961    6.2933 C   0  0  0  0  0  0  0  0  0  0  0  0
   -1.3483  -51.4866    6.2008 C   0  0  0  0  0  0  0  0  0  0  0  0
   -2.6508  -51.1171    5.7985 C   0  0  0  0  0  0  0  0  0  0  0  0
   -2.9320  -49.7715    5.4886 C   0  0  0  0  0  0  0  0  0  0  0  0
   -1.9224  -48.7928    5.5781 C   0  0  0  0  0  0  0  0  0  0  0  0
   -0.6057  -49.1301    5.9783 C   0  0  0  0  0  0  0  0  0  0  0  0
    0.6128  -48.3833    6.1734 C   0  0  0  0  0  0  0  0  0  0  0  0
    0.8068  -46.9172    5.9622 C   0  0  0  0  0  0  0  0  0  0  0  0
    0.7034  -46.1229    7.2813 C   0  0  0  0  0  0  0  0  0  0  0  0
   -0.7224  -46.0877    7.8568 C   0  0  0  0  0  0  0  0  0  0  0  0
   -1.5391  -45.3745    6.9378 O   0  0  0  0  0  0  0  0  0  0  0  0
   -2.8810  -45.1822    7.1989 C   0  0  0  0  0  0  0  0  0  0  0  0
   -5.6349  -44.5517    7.4221 C   0  0  0  0  0  0  0  0  0  0  0  0
   -4.8882  -44.0528    6.3462 C   0  0  0  0  0  0  0  0  0  0  0  0
   -3.5272  -44.3675    6.2431 C   0  0  0  0  0  0  0  0  0  0  0  0
    0.9807  -50.5349    6.6696 N   0  0  0  0  0  0  0  0  0  0  0  0
   -4.5301  -46.7432   10.1164 C   0  0  0  0  0  0  0  0  0  0  0  0
   -5.5194  -46.0063    9.4887 N   0  0  0  0  0  0  0  0  0  0  0  0
   -5.0107  -45.3807    8.3736 C   0  0  0  0  0  0  0  0  0  0  0  0
   -3.6231  -45.7297    8.3012 C   0  0  0  0  0  0  0  0  0  0  0  0
   -3.3547  -46.5895    9.4315 C   0  0  0  0  0  0  0  0  0  0  0  0
    3.0018  -50.9761    7.2169 H   0  0  0  0  0  0  0  0  0  0  0  0
    2.9201  -47.3923    6.7233 H   0  0  0  0  0  0  0  0  0  0  0  0
   -1.1203  -52.5160    6.4348 H   0  0  0  0  0  0  0  0  0  0  0  0
   -3.4285  -51.8632    5.7286 H   0  0  0  0  0  0  0  0  0  0  0  0
   -3.9277  -49.4886    5.1805 H   0  0  0  0  0  0  0  0  0  0  0  0
   -2.1565  -47.7664    5.3372 H   0  0  0  0  0  0  0  0  0  0  0  0
    1.8021  -46.7504    5.5246 H   0  0  0  0  0  0  0  0  0  0  0  0
    0.0352  -46.5536    5.2676 H   0  0  0  0  0  0  0  0  0  0  0  0
    1.3685  -46.5890    8.0232 H   0  0  0  0  0  0  0  0  0  0  0  0
    1.0304  -45.0895    7.0937 H   0  0  0  0  0  0  0  0  0  0  0  0
   -1.1027  -47.1125    7.9797 H   0  0  0  0  0  0  0  0  0  0  0  0
   -0.7210  -45.5778    8.8315 H   0  0  0  0  0  0  0  0  0  0  0  0
   -6.0319  -43.6822    7.9666 H   0  0  0  0  0  0  0  0  0  0  0  0
   -6.4683  -45.1277    6.9935 H   0  0  0  0  0  0  0  0  0  0  0  0
   -5.3594  -43.4293    5.6009 H   0  0  0  0  0  0  0  0  0  0  0  0
   -2.9579  -43.9776    5.4123 H   0  0  0  0  0  0  0  0  0  0  0  0
   -4.6640  -47.3433   11.0043 H   0  0  0  0  0  0  0  0  0  0  0  0
   -2.4025  -47.0296    9.6884 H   0  0  0  0  0  0  0  0  0  0  0  0
  1  2  1  0  0  0  0
  2  3  1  0  0  0  0
  2  4  2  0  0  0  0
  4 11  1  0  0  0  0
  4 20  1  0  0  0  0
  5  6  1  0  0  0  0
  5 10  1  0  0  0  0
  5 20  2  0  0  0  0
  6  7  2  0  0  0  0
  7  8  1  0  0  0  0
  8  9  2  0  0  0  0
  9 10  1  0  0  0  0
 10 11  2  0  0  0  0
 11 12  1  0  0  0  0
 12 13  1  0  0  0  0
 13 14  1  0  0  0  0
 14 15  1  0  0  0  0
 15 16  1  0  0  0  0
 16 19  1  0  0  0  0
 16 24  2  0  0  0  0
 17 18  1  0  0  0  0
 17 23  1  0  0  0  0
 18 19  2  0  0  0  0
 21 22  1  0  0  0  0
 21 25  2  0  0  0  0
 22 23  2  0  0  0  0
 23 24  1  0  0  0  0
 24 25  1  0  0  0  0
  1 26  1  0  0  0  0
  3 27  1  0  0  0  0
  6 28  1  0  0  0  0
  7 29  1  0  0  0  0
  8 30  1  0  0  0  0
  9 31  1  0  0  0  0
 12 32  1  0  0  0  0
 12 33  1  0  0  0  0
 13 34  1  0  0  0  0
 13 35  1  0  0  0  0
 14 36  1  0  0  0  0
 14 37  1  0  0  0  0
 17 38  1  0  0  0  0
 17 39  1  0  0  0  0
 18 40  1  0  0  0  0
 19 41  1  0  0  0  0
 21 42  1  0  0  0  0
 25 43  1  0  0  0  0
M  END
> <r_user_dG.exp>
-6.6626190630157

$$$$
