60
  -OEChem-05162309453D
 Structure written by MMmdl.
 44 46  0     0  0  0  0  0  0999 V2000
    3.9650  -49.5043    7.2172 O   0  0  0  0  0  0  0  0  0  0  0  0
    3.1647  -48.6934    6.6860 C   0  0  0  0  0  0  0  0  0  0  0  0
    3.5469  -47.5550    6.3203 O   0  0  0  0  0  0  0  0  0  0  0  0
    1.7422  -49.1031    6.4894 C   0  0  0  0  0  0  0  0  0  0  0  0
    1.3189  -50.6778    7.1278 S   0  0  0  0  0  0  0  0  0  0  0  0
   -0.3298  -50.5386    6.5641 C   0  0  0  0  0  0  0  0  0  0  0  0
   -1.3498  -51.5036    6.6886 C   0  0  0  0  0  0  0  0  0  0  0  0
   -2.6263  -51.2396    6.1671 C   0  0  0  0  0  0  0  0  0  0  0  0
   -2.8774  -50.0178    5.5363 C   0  0  0  0  0  0  0  0  0  0  0  0
   -1.8563  -49.0471    5.4330 C   0  0  0  0  0  0  0  0  0  0  0  0
   -0.5461  -49.2759    5.9301 C   0  0  0  0  0  0  0  0  0  0  0  0
    0.6515  -48.4545    5.9075 C   0  0  0  0  0  0  0  0  0  0  0  0
    0.6868  -47.0728    5.3244 C   0  0  0  0  0  0  0  0  0  0  0  0
    0.5835  -45.9866    6.4079 C   0  0  0  0  0  0  0  0  0  0  0  0
   -0.7243  -46.0605    7.2196 C   0  0  0  0  0  0  0  0  0  0  0  0
   -1.8113  -45.6523    6.3994 O   0  0  0  0  0  0  0  0  0  0  0  0
   -3.0550  -45.5539    6.9867 C   0  0  0  0  0  0  0  0  0  0  0  0
   -3.3644  -46.1029    8.2530 C   0  0  0  0  0  0  0  0  0  0  0  0
   -4.6428  -45.9429    8.8135 C   0  0  0  0  0  0  0  0  0  0  0  0
   -4.9320  -46.5613   10.1729 C   0  0  0  0  0  0  0  0  0  0  0  0
   -5.6327  -45.2134    8.1178 C   0  0  0  0  0  0  0  0  0  0  0  0
   -7.1917  -44.9681    8.8275 Cl  0  0  0  0  0  0  0  0  0  0  0  0
   -5.3388  -44.6781    6.8441 C   0  0  0  0  0  0  0  0  0  0  0  0
   -6.3832  -43.8851    6.0760 C   0  0  0  0  0  0  0  0  0  0  0  0
   -4.0597  -44.8664    6.2827 C   0  0  0  0  0  0  0  0  0  0  0  0
    4.4717  -47.4540    6.5127 H   0  0  0  0  0  0  0  0  0  0  0  0
   -1.1500  -52.4426    7.1834 H   0  0  0  0  0  0  0  0  0  0  0  0
   -3.4106  -51.9771    6.2529 H   0  0  0  0  0  0  0  0  0  0  0  0
   -3.8558  -49.8151    5.1263 H   0  0  0  0  0  0  0  0  0  0  0  0
   -2.0792  -48.1015    4.9612 H   0  0  0  0  0  0  0  0  0  0  0  0
    1.6332  -46.9416    4.7793 H   0  0  0  0  0  0  0  0  0  0  0  0
   -0.1565  -46.9601    4.6272 H   0  0  0  0  0  0  0  0  0  0  0  0
    1.4311  -46.1012    7.0996 H   0  0  0  0  0  0  0  0  0  0  0  0
    0.6378  -45.0015    5.9215 H   0  0  0  0  0  0  0  0  0  0  0  0
   -0.8881  -47.0940    7.5588 H   0  0  0  0  0  0  0  0  0  0  0  0
   -0.6528  -45.3950    8.0926 H   0  0  0  0  0  0  0  0  0  0  0  0
   -2.6089  -46.6517    8.7956 H   0  0  0  0  0  0  0  0  0  0  0  0
   -4.6874  -45.8381   10.9648 H   0  0  0  0  0  0  0  0  0  0  0  0
   -5.9976  -46.8270   10.2355 H   0  0  0  0  0  0  0  0  0  0  0  0
   -4.3203  -47.4664   10.3014 H   0  0  0  0  0  0  0  0  0  0  0  0
   -6.3035  -42.8203    6.3404 H   0  0  0  0  0  0  0  0  0  0  0  0
   -6.2156  -44.0081    4.9958 H   0  0  0  0  0  0  0  0  0  0  0  0
   -7.3868  -44.2530    6.3356 H   0  0  0  0  0  0  0  0  0  0  0  0
   -3.8482  -44.4771    5.2978 H   0  0  0  0  0  0  0  0  0  0  0  0
  1  2  2  0  0  0  0
  2  3  1  0  0  0  0
  2  4  1  0  0  0  0
  4  5  1  0  0  0  0
  4 12  2  0  0  0  0
  5  6  1  0  0  0  0
  6  7  2  0  0  0  0
  6 11  1  0  0  0  0
  7  8  1  0  0  0  0
  8  9  2  0  0  0  0
  9 10  1  0  0  0  0
 10 11  2  0  0  0  0
 11 12  1  0  0  0  0
 12 13  1  0  0  0  0
 13 14  1  0  0  0  0
 14 15  1  0  0  0  0
 15 16  1  0  0  0  0
 16 17  1  0  0  0  0
 17 18  2  0  0  0  0
 17 25  1  0  0  0  0
 18 19  1  0  0  0  0
 19 20  1  0  0  0  0
 19 21  2  0  0  0  0
 21 22  1  0  0  0  0
 21 23  1  0  0  0  0
 23 24  1  0  0  0  0
 23 25  2  0  0  0  0
  3 26  1  0  0  0  0
  7 27  1  0  0  0  0
  8 28  1  0  0  0  0
  9 29  1  0  0  0  0
 10 30  1  0  0  0  0
 13 31  1  0  0  0  0
 13 32  1  0  0  0  0
 14 33  1  0  0  0  0
 14 34  1  0  0  0  0
 15 35  1  0  0  0  0
 15 36  1  0  0  0  0
 18 37  1  0  0  0  0
 20 38  1  0  0  0  0
 20 39  1  0  0  0  0
 20 40  1  0  0  0  0
 24 41  1  0  0  0  0
 24 42  1  0  0  0  0
 24 43  1  0  0  0  0
 25 44  1  0  0  0  0
M  END
> <r_user_dG.exp>
-8.91509126815632

$$$$
