41
  -OEChem-05192314073D
 Structure written by MMmdl.
 50 53  0     0  0  0  0  0  0999 V2000
    3.6188  -50.0261    7.1261 O   0  0  0  0  0  0  0  0  0  0  0  0
    2.9664  -49.0185    6.7704 C   0  0  0  0  0  0  0  0  0  0  0  0
    3.5028  -47.8881    6.7185 O   0  0  0  0  0  0  0  0  0  0  0  0
    1.5378  -49.1785    6.4066 C   0  0  0  0  0  0  0  0  0  0  0  0
   -0.3286  -50.4688    6.1368 C   0  0  0  0  0  0  0  0  0  0  0  0
   -1.2909  -51.4982    6.0796 C   0  0  0  0  0  0  0  0  0  0  0  0
   -2.6052  -51.1970    5.6648 C   0  0  0  0  0  0  0  0  0  0  0  0
   -2.9395  -49.8757    5.3061 C   0  0  0  0  0  0  0  0  0  0  0  0
   -1.9616  -48.8533    5.3588 C   0  0  0  0  0  0  0  0  0  0  0  0
   -0.6371  -49.1247    5.7873 C   0  0  0  0  0  0  0  0  0  0  0  0
    0.5443  -48.3227    5.9852 C   0  0  0  0  0  0  0  0  0  0  0  0
    0.6195  -46.8348    5.7937 C   0  0  0  0  0  0  0  0  0  0  0  0
    0.6544  -46.0387    7.1131 C   0  0  0  0  0  0  0  0  0  0  0  0
   -0.2727  -46.5426    8.2488 C   0  0  0  0  0  0  0  0  0  0  0  0
   -1.1995  -45.5833    8.7170 O   0  0  0  0  0  0  0  0  0  0  0  0
   -2.4514  -45.6189    8.1601 C   0  0  0  0  0  0  0  0  0  0  0  0
   -3.5606  -45.8237    9.0088 C   0  0  0  0  0  0  0  0  0  0  0  0
   -4.8673  -45.7979    8.4847 C   0  0  0  0  0  0  0  0  0  0  0  0
   -5.0701  -45.5418    7.1156 C   0  0  0  0  0  0  0  0  0  0  0  0
   -3.9629  -45.3736    6.2631 C   0  0  0  0  0  0  0  0  0  0  0  0
   -2.6590  -45.4011    6.7853 C   0  0  0  0  0  0  0  0  0  0  0  0
    1.0071  -50.4487    6.4916 N   0  0  0  0  0  0  0  0  0  0  0  0
   -6.3410  -45.4189    6.6163 O   0  0  0  0  0  0  0  0  0  0  0  0
   -7.7336  -41.4738    6.7170 C   0  0  0  0  0  0  0  0  0  0  0  0
   -7.0295  -41.9323    5.5886 C   0  0  0  0  0  0  0  0  0  0  0  0
   -6.5719  -43.2667    5.5411 C   0  0  0  0  0  0  0  0  0  0  0  0
   -6.8370  -44.1375    6.6183 C   0  0  0  0  0  0  0  0  0  0  0  0
   -7.5850  -43.6840    7.7222 C   0  0  0  0  0  0  0  0  0  0  0  0
   -8.0381  -42.3539    7.7682 C   0  0  0  0  0  0  0  0  0  0  0  0
    4.4135  -47.9570    6.9799 H   0  0  0  0  0  0  0  0  0  0  0  0
   -1.0238  -52.5088    6.3511 H   0  0  0  0  0  0  0  0  0  0  0  0
   -3.3522  -51.9758    5.6223 H   0  0  0  0  0  0  0  0  0  0  0  0
   -3.9454  -49.6422    4.9898 H   0  0  0  0  0  0  0  0  0  0  0  0
   -2.2291  -47.8483    5.0674 H   0  0  0  0  0  0  0  0  0  0  0  0
    1.5325  -46.6040    5.2252 H   0  0  0  0  0  0  0  0  0  0  0  0
   -0.2616  -46.5142    5.2184 H   0  0  0  0  0  0  0  0  0  0  0  0
    1.6876  -46.0614    7.4900 H   0  0  0  0  0  0  0  0  0  0  0  0
    0.3700  -45.0009    6.8850 H   0  0  0  0  0  0  0  0  0  0  0  0
   -0.8357  -47.4099    7.8736 H   0  0  0  0  0  0  0  0  0  0  0  0
    0.3578  -46.8530    9.0950 H   0  0  0  0  0  0  0  0  0  0  0  0
   -3.4066  -46.0007   10.0630 H   0  0  0  0  0  0  0  0  0  0  0  0
   -5.7131  -45.9745    9.1326 H   0  0  0  0  0  0  0  0  0  0  0  0
   -4.1161  -45.2230    5.2047 H   0  0  0  0  0  0  0  0  0  0  0  0
   -1.8133  -45.2547    6.1297 H   0  0  0  0  0  0  0  0  0  0  0  0
    1.5250  -51.2558    6.7751 H   0  0  0  0  0  0  0  0  0  0  0  0
   -8.0414  -40.4402    6.7751 H   0  0  0  0  0  0  0  0  0  0  0  0
   -6.8396  -41.2650    4.7609 H   0  0  0  0  0  0  0  0  0  0  0  0
   -6.0204  -43.6198    4.6823 H   0  0  0  0  0  0  0  0  0  0  0  0
   -7.8108  -44.3590    8.5345 H   0  0  0  0  0  0  0  0  0  0  0  0
   -8.6195  -42.0095    8.6107 H   0  0  0  0  0  0  0  0  0  0  0  0
  1  2  2  0  0  0  0
  2  3  1  0  0  0  0
  2  4  1  0  0  0  0
  4 11  2  0  0  0  0
  4 22  1  0  0  0  0
  5  6  2  0  0  0  0
  5 10  1  0  0  0  0
  5 22  1  0  0  0  0
  6  7  1  0  0  0  0
  7  8  2  0  0  0  0
  8  9  1  0  0  0  0
  9 10  2  0  0  0  0
 10 11  1  0  0  0  0
 11 12  1  0  0  0  0
 12 13  1  0  0  0  0
 13 14  1  0  0  0  0
 14 15  1  0  0  0  0
 15 16  1  0  0  0  0
 16 17  2  0  0  0  0
 16 21  1  0  0  0  0
 17 18  1  0  0  0  0
 18 19  2  0  0  0  0
 19 20  1  0  0  0  0
 19 23  1  0  0  0  0
 20 21  2  0  0  0  0
 23 27  1  0  0  0  0
 24 25  2  0  0  0  0
 24 29  1  0  0  0  0
 25 26  1  0  0  0  0
 26 27  2  0  0  0  0
 27 28  1  0  0  0  0
 28 29  2  0  0  0  0
  3 30  1  0  0  0  0
  6 31  1  0  0  0  0
  7 32  1  0  0  0  0
  8 33  1  0  0  0  0
  9 34  1  0  0  0  0
 12 35  1  0  0  0  0
 12 36  1  0  0  0  0
 13 37  1  0  0  0  0
 13 38  1  0  0  0  0
 14 39  1  0  0  0  0
 14 40  1  0  0  0  0
 17 41  1  0  0  0  0
 18 42  1  0  0  0  0
 20 43  1  0  0  0  0
 21 44  1  0  0  0  0
 22 45  1  0  0  0  0
 24 46  1  0  0  0  0
 25 47  1  0  0  0  0
 26 48  1  0  0  0  0
 28 49  1  0  0  0  0
 29 50  1  0  0  0  0
M  END
> <r_user_dG.exp>
-7.12924538792258

$$$$
41
  -OEChem-05192314073D
 Structure written by MMmdl.
 50 53  0     1  0  0  0  0  0999 V2000
    3.6188  -50.0261    7.1261 O   0  0  0  0  0  0  0  0  0  0  0  0
    2.9664  -49.0185    6.7704 C   0  0  0  0  0  0  0  0  0  0  0  0
    3.5028  -47.8881    6.7185 O   0  0  0  0  0  0  0  0  0  0  0  0
    1.5378  -49.1785    6.4066 C   0  0  0  0  0  0  0  0  0  0  0  0
   -0.3286  -50.4688    6.1368 C   0  0  0  0  0  0  0  0  0  0  0  0
   -1.2909  -51.4982    6.0796 C   0  0  0  0  0  0  0  0  0  0  0  0
   -2.6052  -51.1970    5.6648 C   0  0  0  0  0  0  0  0  0  0  0  0
   -2.9395  -49.8757    5.3061 C   0  0  0  0  0  0  0  0  0  0  0  0
   -1.9616  -48.8533    5.3588 C   0  0  0  0  0  0  0  0  0  0  0  0
   -0.6371  -49.1247    5.7873 C   0  0  0  0  0  0  0  0  0  0  0  0
    0.5443  -48.3227    5.9852 C   0  0  3  0  0  0  0  0  0  0  0  0
    0.6195  -46.8348    5.7937 C   0  0  0  0  0  0  0  0  0  0  0  0
    0.6544  -46.0387    7.1131 C   0  0  0  0  0  0  0  0  0  0  0  0
   -0.2727  -46.5426    8.2488 C   0  0  0  0  0  0  0  0  0  0  0  0
   -1.1995  -45.5833    8.7170 O   0  0  0  0  0  0  0  0  0  0  0  0
   -2.4514  -45.6189    8.1601 C   0  0  0  0  0  0  0  0  0  0  0  0
   -3.5606  -45.8237    9.0088 C   0  0  0  0  0  0  0  0  0  0  0  0
   -4.8673  -45.7979    8.4847 C   0  0  0  0  0  0  0  0  0  0  0  0
   -5.0701  -45.5418    7.1156 C   0  0  0  0  0  0  0  0  0  0  0  0
   -3.9629  -45.3736    6.2631 C   0  0  0  0  0  0  0  0  0  0  0  0
   -2.6590  -45.4011    6.7853 C   0  0  0  0  0  0  0  0  0  0  0  0
    1.0071  -50.4487    6.4916 N   0  0  0  0  0  0  0  0  0  0  0  0
   -6.3410  -45.4189    6.6163 O   0  0  0  0  0  0  0  0  0  0  0  0
   -7.7336  -41.4738    6.7170 C   0  0  0  0  0  0  0  0  0  0  0  0
   -7.0295  -41.9323    5.5886 C   0  0  0  0  0  0  0  0  0  0  0  0
   -6.5719  -43.2667    5.5411 C   0  0  0  0  0  0  0  0  0  0  0  0
   -6.8370  -44.1375    6.6183 C   0  0  0  0  0  0  0  0  0  0  0  0
   -7.5850  -43.6840    7.7222 C   0  0  0  0  0  0  0  0  0  0  0  0
   -8.0381  -42.3539    7.7682 C   0  0  0  0  0  0  0  0  0  0  0  0
    4.4135  -47.9570    6.9799 H   0  0  0  0  0  0  0  0  0  0  0  0
   -1.0238  -52.5088    6.3511 H   0  0  0  0  0  0  0  0  0  0  0  0
   -3.3522  -51.9758    5.6223 H   0  0  0  0  0  0  0  0  0  0  0  0
   -3.9454  -49.6422    4.9898 H   0  0  0  0  0  0  0  0  0  0  0  0
   -2.2291  -47.8483    5.0674 H   0  0  0  0  0  0  0  0  0  0  0  0
    0.8388  -48.4814    4.9373 H   0  0  0  0  0  0  0  0  0  0  0  0
    1.5325  -46.6040    5.2252 H   0  0  0  0  0  0  0  0  0  0  0  0
   -0.2616  -46.5142    5.2184 H   0  0  0  0  0  0  0  0  0  0  0  0
    1.6876  -46.0614    7.4900 H   0  0  0  0  0  0  0  0  0  0  0  0
    0.3700  -45.0009    6.8850 H   0  0  0  0  0  0  0  0  0  0  0  0
   -0.8357  -47.4099    7.8736 H   0  0  0  0  0  0  0  0  0  0  0  0
    0.3578  -46.8530    9.0950 H   0  0  0  0  0  0  0  0  0  0  0  0
   -3.4066  -46.0007   10.0630 H   0  0  0  0  0  0  0  0  0  0  0  0
   -5.7131  -45.9745    9.1326 H   0  0  0  0  0  0  0  0  0  0  0  0
   -4.1161  -45.2230    5.2047 H   0  0  0  0  0  0  0  0  0  0  0  0
   -1.8133  -45.2547    6.1297 H   0  0  0  0  0  0  0  0  0  0  0  0
   -8.0414  -40.4402    6.7751 H   0  0  0  0  0  0  0  0  0  0  0  0
   -6.8396  -41.2650    4.7609 H   0  0  0  0  0  0  0  0  0  0  0  0
   -6.0204  -43.6198    4.6823 H   0  0  0  0  0  0  0  0  0  0  0  0
   -7.8108  -44.3590    8.5345 H   0  0  0  0  0  0  0  0  0  0  0  0
   -8.6195  -42.0095    8.6107 H   0  0  0  0  0  0  0  0  0  0  0  0
  1  2  2  0  0  0  0
  2  3  1  0  0  0  0
  2  4  1  0  0  0  0
  4 11  1  0  0  0  0
  4 22  2  0  0  0  0
  5  6  2  0  0  0  0
  5 10  1  0  0  0  0
  5 22  1  0  0  0  0
  6  7  1  0  0  0  0
  7  8  2  0  0  0  0
  8  9  1  0  0  0  0
  9 10  2  0  0  0  0
 10 11  1  0  0  0  0
 11 12  1  0  0  0  0
 12 13  1  0  0  0  0
 13 14  1  0  0  0  0
 14 15  1  0  0  0  0
 15 16  1  0  0  0  0
 16 17  2  0  0  0  0
 16 21  1  0  0  0  0
 17 18  1  0  0  0  0
 18 19  2  0  0  0  0
 19 20  1  0  0  0  0
 19 23  1  0  0  0  0
 20 21  2  0  0  0  0
 23 27  1  0  0  0  0
 24 25  2  0  0  0  0
 24 29  1  0  0  0  0
 25 26  1  0  0  0  0
 26 27  2  0  0  0  0
 27 28  1  0  0  0  0
 28 29  2  0  0  0  0
  3 30  1  0  0  0  0
  6 31  1  0  0  0  0
  7 32  1  0  0  0  0
  8 33  1  0  0  0  0
  9 34  1  0  0  0  0
 11 35  1  0  0  0  0
 12 36  1  0  0  0  0
 12 37  1  0  0  0  0
 13 38  1  0  0  0  0
 13 39  1  0  0  0  0
 14 40  1  0  0  0  0
 14 41  1  0  0  0  0
 17 42  1  0  0  0  0
 18 43  1  0  0  0  0
 20 44  1  0  0  0  0
 21 45  1  0  0  0  0
 24 46  1  0  0  0  0
 25 47  1  0  0  0  0
 26 48  1  0  0  0  0
 28 49  1  0  0  0  0
 29 50  1  0  0  0  0
M  END
> <r_user_dG.exp>
-7.12924538792258

$$$$
41
  -OEChem-05192314073D
 Structure written by MMmdl.
 50 53  0     1  0  0  0  0  0999 V2000
    3.6188  -50.0261    7.1261 O   0  0  0  0  0  0  0  0  0  0  0  0
    2.9664  -49.0185    6.7704 C   0  0  0  0  0  0  0  0  0  0  0  0
    3.5028  -47.8881    6.7185 O   0  0  0  0  0  0  0  0  0  0  0  0
    1.5378  -49.1785    6.4066 C   0  0  3  0  0  0  0  0  0  0  0  0
   -0.3286  -50.4688    6.1368 C   0  0  0  0  0  0  0  0  0  0  0  0
   -1.2909  -51.4982    6.0796 C   0  0  0  0  0  0  0  0  0  0  0  0
   -2.6052  -51.1970    5.6648 C   0  0  0  0  0  0  0  0  0  0  0  0
   -2.9395  -49.8757    5.3061 C   0  0  0  0  0  0  0  0  0  0  0  0
   -1.9616  -48.8533    5.3588 C   0  0  0  0  0  0  0  0  0  0  0  0
   -0.6371  -49.1247    5.7873 C   0  0  0  0  0  0  0  0  0  0  0  0
    0.5443  -48.3227    5.9852 C   0  0  0  0  0  0  0  0  0  0  0  0
    0.6195  -46.8348    5.7937 C   0  0  0  0  0  0  0  0  0  0  0  0
    0.6544  -46.0387    7.1131 C   0  0  0  0  0  0  0  0  0  0  0  0
   -0.2727  -46.5426    8.2488 C   0  0  0  0  0  0  0  0  0  0  0  0
   -1.1995  -45.5833    8.7170 O   0  0  0  0  0  0  0  0  0  0  0  0
   -2.4514  -45.6189    8.1601 C   0  0  0  0  0  0  0  0  0  0  0  0
   -3.5606  -45.8237    9.0088 C   0  0  0  0  0  0  0  0  0  0  0  0
   -4.8673  -45.7979    8.4847 C   0  0  0  0  0  0  0  0  0  0  0  0
   -5.0701  -45.5418    7.1156 C   0  0  0  0  0  0  0  0  0  0  0  0
   -3.9629  -45.3736    6.2631 C   0  0  0  0  0  0  0  0  0  0  0  0
   -2.6590  -45.4011    6.7853 C   0  0  0  0  0  0  0  0  0  0  0  0
    1.0071  -50.4487    6.4916 N   0  0  0  0  0  0  0  0  0  0  0  0
   -6.3410  -45.4189    6.6163 O   0  0  0  0  0  0  0  0  0  0  0  0
   -7.7336  -41.4738    6.7170 C   0  0  0  0  0  0  0  0  0  0  0  0
   -7.0295  -41.9323    5.5886 C   0  0  0  0  0  0  0  0  0  0  0  0
   -6.5719  -43.2667    5.5411 C   0  0  0  0  0  0  0  0  0  0  0  0
   -6.8370  -44.1375    6.6183 C   0  0  0  0  0  0  0  0  0  0  0  0
   -7.5850  -43.6840    7.7222 C   0  0  0  0  0  0  0  0  0  0  0  0
   -8.0381  -42.3539    7.7682 C   0  0  0  0  0  0  0  0  0  0  0  0
    4.4135  -47.9570    6.9799 H   0  0  0  0  0  0  0  0  0  0  0  0
    1.8231  -49.3655    5.3608 H   0  0  0  0  0  0  0  0  0  0  0  0
   -1.0238  -52.5088    6.3511 H   0  0  0  0  0  0  0  0  0  0  0  0
   -3.3522  -51.9758    5.6223 H   0  0  0  0  0  0  0  0  0  0  0  0
   -3.9454  -49.6422    4.9898 H   0  0  0  0  0  0  0  0  0  0  0  0
   -2.2291  -47.8483    5.0674 H   0  0  0  0  0  0  0  0  0  0  0  0
    1.5325  -46.6040    5.2252 H   0  0  0  0  0  0  0  0  0  0  0  0
   -0.2616  -46.5142    5.2184 H   0  0  0  0  0  0  0  0  0  0  0  0
    1.6876  -46.0614    7.4900 H   0  0  0  0  0  0  0  0  0  0  0  0
    0.3700  -45.0009    6.8850 H   0  0  0  0  0  0  0  0  0  0  0  0
   -0.8357  -47.4099    7.8736 H   0  0  0  0  0  0  0  0  0  0  0  0
    0.3578  -46.8530    9.0950 H   0  0  0  0  0  0  0  0  0  0  0  0
   -3.4066  -46.0007   10.0630 H   0  0  0  0  0  0  0  0  0  0  0  0
   -5.7131  -45.9745    9.1326 H   0  0  0  0  0  0  0  0  0  0  0  0
   -4.1161  -45.2230    5.2047 H   0  0  0  0  0  0  0  0  0  0  0  0
   -1.8133  -45.2547    6.1297 H   0  0  0  0  0  0  0  0  0  0  0  0
   -8.0414  -40.4402    6.7751 H   0  0  0  0  0  0  0  0  0  0  0  0
   -6.8396  -41.2650    4.7609 H   0  0  0  0  0  0  0  0  0  0  0  0
   -6.0204  -43.6198    4.6823 H   0  0  0  0  0  0  0  0  0  0  0  0
   -7.8108  -44.3590    8.5345 H   0  0  0  0  0  0  0  0  0  0  0  0
   -8.6195  -42.0095    8.6107 H   0  0  0  0  0  0  0  0  0  0  0  0
  1  2  2  0  0  0  0
  2  3  1  0  0  0  0
  2  4  1  0  0  0  0
  4 11  1  0  0  0  0
  4 22  1  0  0  0  0
  5  6  1  0  0  0  0
  5 10  1  0  0  0  0
  5 22  2  0  0  0  0
  6  7  2  0  0  0  0
  7  8  1  0  0  0  0
  8  9  2  0  0  0  0
  9 10  1  0  0  0  0
 10 11  2  0  0  0  0
 11 12  1  0  0  0  0
 12 13  1  0  0  0  0
 13 14  1  0  0  0  0
 14 15  1  0  0  0  0
 15 16  1  0  0  0  0
 16 17  2  0  0  0  0
 16 21  1  0  0  0  0
 17 18  1  0  0  0  0
 18 19  2  0  0  0  0
 19 20  1  0  0  0  0
 19 23  1  0  0  0  0
 20 21  2  0  0  0  0
 23 27  1  0  0  0  0
 24 25  2  0  0  0  0
 24 29  1  0  0  0  0
 25 26  1  0  0  0  0
 26 27  2  0  0  0  0
 27 28  1  0  0  0  0
 28 29  2  0  0  0  0
  3 30  1  0  0  0  0
  4 31  1  0  0  0  0
  6 32  1  0  0  0  0
  7 33  1  0  0  0  0
  8 34  1  0  0  0  0
  9 35  1  0  0  0  0
 12 36  1  0  0  0  0
 12 37  1  0  0  0  0
 13 38  1  0  0  0  0
 13 39  1  0  0  0  0
 14 40  1  0  0  0  0
 14 41  1  0  0  0  0
 17 42  1  0  0  0  0
 18 43  1  0  0  0  0
 20 44  1  0  0  0  0
 21 45  1  0  0  0  0
 24 46  1  0  0  0  0
 25 47  1  0  0  0  0
 26 48  1  0  0  0  0
 28 49  1  0  0  0  0
 29 50  1  0  0  0  0
M  END
> <r_user_dG.exp>
-7.12924538792258

$$$$
41
  -OEChem-05192314073D
 Structure written by MMmdl.
 50 53  0     1  0  0  0  0  0999 V2000
    3.6188  -50.0261    7.1261 O   0  0  0  0  0  0  0  0  0  0  0  0
    2.9664  -49.0185    6.7704 C   0  0  0  0  0  0  0  0  0  0  0  0
    3.5028  -47.8881    6.7185 O   0  0  0  0  0  0  0  0  0  0  0  0
    1.5378  -49.1785    6.4066 C   0  0  0  0  0  0  0  0  0  0  0  0
   -0.3286  -50.4688    6.1368 C   0  0  0  0  0  0  0  0  0  0  0  0
   -1.2909  -51.4982    6.0796 C   0  0  0  0  0  0  0  0  0  0  0  0
   -2.6052  -51.1970    5.6648 C   0  0  0  0  0  0  0  0  0  0  0  0
   -2.9395  -49.8757    5.3061 C   0  0  0  0  0  0  0  0  0  0  0  0
   -1.9616  -48.8533    5.3588 C   0  0  0  0  0  0  0  0  0  0  0  0
   -0.6371  -49.1247    5.7873 C   0  0  3  0  0  0  0  0  0  0  0  0
    0.5443  -48.3227    5.9852 C   0  0  0  0  0  0  0  0  0  0  0  0
    0.6195  -46.8348    5.7937 C   0  0  0  0  0  0  0  0  0  0  0  0
    0.6544  -46.0387    7.1131 C   0  0  0  0  0  0  0  0  0  0  0  0
   -0.2727  -46.5426    8.2488 C   0  0  0  0  0  0  0  0  0  0  0  0
   -1.1995  -45.5833    8.7170 O   0  0  0  0  0  0  0  0  0  0  0  0
   -2.4514  -45.6189    8.1601 C   0  0  0  0  0  0  0  0  0  0  0  0
   -3.5606  -45.8237    9.0088 C   0  0  0  0  0  0  0  0  0  0  0  0
   -4.8673  -45.7979    8.4847 C   0  0  0  0  0  0  0  0  0  0  0  0
   -5.0701  -45.5418    7.1156 C   0  0  0  0  0  0  0  0  0  0  0  0
   -3.9629  -45.3736    6.2631 C   0  0  0  0  0  0  0  0  0  0  0  0
   -2.6590  -45.4011    6.7853 C   0  0  0  0  0  0  0  0  0  0  0  0
    1.0071  -50.4487    6.4916 N   0  0  0  0  0  0  0  0  0  0  0  0
   -6.3410  -45.4189    6.6163 O   0  0  0  0  0  0  0  0  0  0  0  0
   -7.7336  -41.4738    6.7170 C   0  0  0  0  0  0  0  0  0  0  0  0
   -7.0295  -41.9323    5.5886 C   0  0  0  0  0  0  0  0  0  0  0  0
   -6.5719  -43.2667    5.5411 C   0  0  0  0  0  0  0  0  0  0  0  0
   -6.8370  -44.1375    6.6183 C   0  0  0  0  0  0  0  0  0  0  0  0
   -7.5850  -43.6840    7.7222 C   0  0  0  0  0  0  0  0  0  0  0  0
   -8.0381  -42.3539    7.7682 C   0  0  0  0  0  0  0  0  0  0  0  0
    4.4135  -47.9570    6.9799 H   0  0  0  0  0  0  0  0  0  0  0  0
   -1.0238  -52.5088    6.3511 H   0  0  0  0  0  0  0  0  0  0  0  0
   -3.3522  -51.9758    5.6223 H   0  0  0  0  0  0  0  0  0  0  0  0
   -3.9454  -49.6422    4.9898 H   0  0  0  0  0  0  0  0  0  0  0  0
   -2.2291  -47.8483    5.0674 H   0  0  0  0  0  0  0  0  0  0  0  0
   -0.3357  -49.3207    4.7477 H   0  0  0  0  0  0  0  0  0  0  0  0
    1.5325  -46.6040    5.2252 H   0  0  0  0  0  0  0  0  0  0  0  0
   -0.2616  -46.5142    5.2184 H   0  0  0  0  0  0  0  0  0  0  0  0
    1.6876  -46.0614    7.4900 H   0  0  0  0  0  0  0  0  0  0  0  0
    0.3700  -45.0009    6.8850 H   0  0  0  0  0  0  0  0  0  0  0  0
   -0.8357  -47.4099    7.8736 H   0  0  0  0  0  0  0  0  0  0  0  0
    0.3578  -46.8530    9.0950 H   0  0  0  0  0  0  0  0  0  0  0  0
   -3.4066  -46.0007   10.0630 H   0  0  0  0  0  0  0  0  0  0  0  0
   -5.7131  -45.9745    9.1326 H   0  0  0  0  0  0  0  0  0  0  0  0
   -4.1161  -45.2230    5.2047 H   0  0  0  0  0  0  0  0  0  0  0  0
   -1.8133  -45.2547    6.1297 H   0  0  0  0  0  0  0  0  0  0  0  0
   -8.0414  -40.4402    6.7751 H   0  0  0  0  0  0  0  0  0  0  0  0
   -6.8396  -41.2650    4.7609 H   0  0  0  0  0  0  0  0  0  0  0  0
   -6.0204  -43.6198    4.6823 H   0  0  0  0  0  0  0  0  0  0  0  0
   -7.8108  -44.3590    8.5345 H   0  0  0  0  0  0  0  0  0  0  0  0
   -8.6195  -42.0095    8.6107 H   0  0  0  0  0  0  0  0  0  0  0  0
  1  2  2  0  0  0  0
  2  3  1  0  0  0  0
  2  4  1  0  0  0  0
  4 11  2  0  0  0  0
  4 22  1  0  0  0  0
  5  6  1  0  0  0  0
  5 10  1  0  0  0  0
  5 22  2  0  0  0  0
  6  7  2  0  0  0  0
  7  8  1  0  0  0  0
  8  9  2  0  0  0  0
  9 10  1  0  0  0  0
 10 11  1  0  0  0  0
 11 12  1  0  0  0  0
 12 13  1  0  0  0  0
 13 14  1  0  0  0  0
 14 15  1  0  0  0  0
 15 16  1  0  0  0  0
 16 17  2  0  0  0  0
 16 21  1  0  0  0  0
 17 18  1  0  0  0  0
 18 19  2  0  0  0  0
 19 20  1  0  0  0  0
 19 23  1  0  0  0  0
 20 21  2  0  0  0  0
 23 27  1  0  0  0  0
 24 25  2  0  0  0  0
 24 29  1  0  0  0  0
 25 26  1  0  0  0  0
 26 27  2  0  0  0  0
 27 28  1  0  0  0  0
 28 29  2  0  0  0  0
  3 30  1  0  0  0  0
  6 31  1  0  0  0  0
  7 32  1  0  0  0  0
  8 33  1  0  0  0  0
  9 34  1  0  0  0  0
 10 35  1  0  0  0  0
 12 36  1  0  0  0  0
 12 37  1  0  0  0  0
 13 38  1  0  0  0  0
 13 39  1  0  0  0  0
 14 40  1  0  0  0  0
 14 41  1  0  0  0  0
 17 42  1  0  0  0  0
 18 43  1  0  0  0  0
 20 44  1  0  0  0  0
 21 45  1  0  0  0  0
 24 46  1  0  0  0  0
 25 47  1  0  0  0  0
 26 48  1  0  0  0  0
 28 49  1  0  0  0  0
 29 50  1  0  0  0  0
M  END
> <r_user_dG.exp>
-7.12924538792258

$$$$
41
  -OEChem-05192314073D
 Structure written by MMmdl.
 50 53  0     1  0  0  0  0  0999 V2000
    3.6188  -50.0261    7.1261 O   0  0  0  0  0  0  0  0  0  0  0  0
    2.9664  -49.0185    6.7704 C   0  0  0  0  0  0  0  0  0  0  0  0
    3.5028  -47.8881    6.7185 O   0  0  0  0  0  0  0  0  0  0  0  0
    1.5378  -49.1785    6.4066 C   0  0  0  0  0  0  0  0  0  0  0  0
   -0.3286  -50.4688    6.1368 C   0  0  3  0  0  0  0  0  0  0  0  0
   -1.2909  -51.4982    6.0796 C   0  0  0  0  0  0  0  0  0  0  0  0
   -2.6052  -51.1970    5.6648 C   0  0  0  0  0  0  0  0  0  0  0  0
   -2.9395  -49.8757    5.3061 C   0  0  0  0  0  0  0  0  0  0  0  0
   -1.9616  -48.8533    5.3588 C   0  0  0  0  0  0  0  0  0  0  0  0
   -0.6371  -49.1247    5.7873 C   0  0  0  0  0  0  0  0  0  0  0  0
    0.5443  -48.3227    5.9852 C   0  0  0  0  0  0  0  0  0  0  0  0
    0.6195  -46.8348    5.7937 C   0  0  0  0  0  0  0  0  0  0  0  0
    0.6544  -46.0387    7.1131 C   0  0  0  0  0  0  0  0  0  0  0  0
   -0.2727  -46.5426    8.2488 C   0  0  0  0  0  0  0  0  0  0  0  0
   -1.1995  -45.5833    8.7170 O   0  0  0  0  0  0  0  0  0  0  0  0
   -2.4514  -45.6189    8.1601 C   0  0  0  0  0  0  0  0  0  0  0  0
   -3.5606  -45.8237    9.0088 C   0  0  0  0  0  0  0  0  0  0  0  0
   -4.8673  -45.7979    8.4847 C   0  0  0  0  0  0  0  0  0  0  0  0
   -5.0701  -45.5418    7.1156 C   0  0  0  0  0  0  0  0  0  0  0  0
   -3.9629  -45.3736    6.2631 C   0  0  0  0  0  0  0  0  0  0  0  0
   -2.6590  -45.4011    6.7853 C   0  0  0  0  0  0  0  0  0  0  0  0
    1.0071  -50.4487    6.4916 N   0  0  0  0  0  0  0  0  0  0  0  0
   -6.3410  -45.4189    6.6163 O   0  0  0  0  0  0  0  0  0  0  0  0
   -7.7336  -41.4738    6.7170 C   0  0  0  0  0  0  0  0  0  0  0  0
   -7.0295  -41.9323    5.5886 C   0  0  0  0  0  0  0  0  0  0  0  0
   -6.5719  -43.2667    5.5411 C   0  0  0  0  0  0  0  0  0  0  0  0
   -6.8370  -44.1375    6.6183 C   0  0  0  0  0  0  0  0  0  0  0  0
   -7.5850  -43.6840    7.7222 C   0  0  0  0  0  0  0  0  0  0  0  0
   -8.0381  -42.3539    7.7682 C   0  0  0  0  0  0  0  0  0  0  0  0
    4.4135  -47.9570    6.9799 H   0  0  0  0  0  0  0  0  0  0  0  0
   -0.6097  -50.2629    7.1801 H   0  0  0  0  0  0  0  0  0  0  0  0
   -1.0238  -52.5088    6.3511 H   0  0  0  0  0  0  0  0  0  0  0  0
   -3.3522  -51.9758    5.6223 H   0  0  0  0  0  0  0  0  0  0  0  0
   -3.9454  -49.6422    4.9898 H   0  0  0  0  0  0  0  0  0  0  0  0
   -2.2291  -47.8483    5.0674 H   0  0  0  0  0  0  0  0  0  0  0  0
    1.5325  -46.6040    5.2252 H   0  0  0  0  0  0  0  0  0  0  0  0
   -0.2616  -46.5142    5.2184 H   0  0  0  0  0  0  0  0  0  0  0  0
    1.6876  -46.0614    7.4900 H   0  0  0  0  0  0  0  0  0  0  0  0
    0.3700  -45.0009    6.8850 H   0  0  0  0  0  0  0  0  0  0  0  0
   -0.8357  -47.4099    7.8736 H   0  0  0  0  0  0  0  0  0  0  0  0
    0.3578  -46.8530    9.0950 H   0  0  0  0  0  0  0  0  0  0  0  0
   -3.4066  -46.0007   10.0630 H   0  0  0  0  0  0  0  0  0  0  0  0
   -5.7131  -45.9745    9.1326 H   0  0  0  0  0  0  0  0  0  0  0  0
   -4.1161  -45.2230    5.2047 H   0  0  0  0  0  0  0  0  0  0  0  0
   -1.8133  -45.2547    6.1297 H   0  0  0  0  0  0  0  0  0  0  0  0
   -8.0414  -40.4402    6.7751 H   0  0  0  0  0  0  0  0  0  0  0  0
   -6.8396  -41.2650    4.7609 H   0  0  0  0  0  0  0  0  0  0  0  0
   -6.0204  -43.6198    4.6823 H   0  0  0  0  0  0  0  0  0  0  0  0
   -7.8108  -44.3590    8.5345 H   0  0  0  0  0  0  0  0  0  0  0  0
   -8.6195  -42.0095    8.6107 H   0  0  0  0  0  0  0  0  0  0  0  0
  1  2  2  0  0  0  0
  2  3  1  0  0  0  0
  2  4  1  0  0  0  0
  4 11  1  0  0  0  0
  4 22  2  0  0  0  0
  5  6  1  0  0  0  0
  5 10  1  0  0  0  0
  5 22  1  0  0  0  0
  6  7  2  0  0  0  0
  7  8  1  0  0  0  0
  8  9  2  0  0  0  0
  9 10  1  0  0  0  0
 10 11  2  0  0  0  0
 11 12  1  0  0  0  0
 12 13  1  0  0  0  0
 13 14  1  0  0  0  0
 14 15  1  0  0  0  0
 15 16  1  0  0  0  0
 16 17  2  0  0  0  0
 16 21  1  0  0  0  0
 17 18  1  0  0  0  0
 18 19  2  0  0  0  0
 19 20  1  0  0  0  0
 19 23  1  0  0  0  0
 20 21  2  0  0  0  0
 23 27  1  0  0  0  0
 24 25  2  0  0  0  0
 24 29  1  0  0  0  0
 25 26  1  0  0  0  0
 26 27  2  0  0  0  0
 27 28  1  0  0  0  0
 28 29  2  0  0  0  0
  3 30  1  0  0  0  0
  5 31  1  0  0  0  0
  6 32  1  0  0  0  0
  7 33  1  0  0  0  0
  8 34  1  0  0  0  0
  9 35  1  0  0  0  0
 12 36  1  0  0  0  0
 12 37  1  0  0  0  0
 13 38  1  0  0  0  0
 13 39  1  0  0  0  0
 14 40  1  0  0  0  0
 14 41  1  0  0  0  0
 17 42  1  0  0  0  0
 18 43  1  0  0  0  0
 20 44  1  0  0  0  0
 21 45  1  0  0  0  0
 24 46  1  0  0  0  0
 25 47  1  0  0  0  0
 26 48  1  0  0  0  0
 28 49  1  0  0  0  0
 29 50  1  0  0  0  0
M  END
> <r_user_dG.exp>
-7.12924538792258

$$$$
41
  -OEChem-05192314073D
 Structure written by MMmdl.
 50 53  0     0  0  0  0  0  0999 V2000
    3.6188  -50.0261    7.1261 O   0  0  0  0  0  0  0  0  0  0  0  0
    2.9664  -49.0185    6.7704 C   0  0  0  0  0  0  0  0  0  0  0  0
    3.5028  -47.8881    6.7185 O   0  0  0  0  0  0  0  0  0  0  0  0
    1.5378  -49.1785    6.4066 C   0  0  0  0  0  0  0  0  0  0  0  0
   -0.3286  -50.4688    6.1368 C   0  0  0  0  0  0  0  0  0  0  0  0
   -1.2909  -51.4982    6.0796 C   0  0  0  0  0  0  0  0  0  0  0  0
   -2.6052  -51.1970    5.6648 C   0  0  0  0  0  0  0  0  0  0  0  0
   -2.9395  -49.8757    5.3061 C   0  0  0  0  0  0  0  0  0  0  0  0
   -1.9616  -48.8533    5.3588 C   0  0  0  0  0  0  0  0  0  0  0  0
   -0.6371  -49.1247    5.7873 C   0  0  0  0  0  0  0  0  0  0  0  0
    0.5443  -48.3227    5.9852 C   0  0  0  0  0  0  0  0  0  0  0  0
    0.6195  -46.8348    5.7937 C   0  0  0  0  0  0  0  0  0  0  0  0
    0.6544  -46.0387    7.1131 C   0  0  0  0  0  0  0  0  0  0  0  0
   -0.2727  -46.5426    8.2488 C   0  0  0  0  0  0  0  0  0  0  0  0
   -1.1995  -45.5833    8.7170 O   0  0  0  0  0  0  0  0  0  0  0  0
   -2.4514  -45.6189    8.1601 C   0  0  0  0  0  0  0  0  0  0  0  0
   -3.5606  -45.8237    9.0088 C   0  0  0  0  0  0  0  0  0  0  0  0
   -4.8673  -45.7979    8.4847 C   0  0  0  0  0  0  0  0  0  0  0  0
   -5.0701  -45.5418    7.1156 C   0  0  0  0  0  0  0  0  0  0  0  0
   -3.9629  -45.3736    6.2631 C   0  0  0  0  0  0  0  0  0  0  0  0
   -2.6590  -45.4011    6.7853 C   0  0  0  0  0  0  0  0  0  0  0  0
    1.0071  -50.4487    6.4916 N   0  0  0  0  0  0  0  0  0  0  0  0
   -6.3410  -45.4189    6.6163 O   0  0  0  0  0  0  0  0  0  0  0  0
   -7.7336  -41.4738    6.7170 C   0  0  0  0  0  0  0  0  0  0  0  0
   -7.0295  -41.9323    5.5886 C   0  0  0  0  0  0  0  0  0  0  0  0
   -6.5719  -43.2667    5.5411 C   0  0  0  0  0  0  0  0  0  0  0  0
   -6.8370  -44.1375    6.6183 C   0  0  0  0  0  0  0  0  0  0  0  0
   -7.5850  -43.6840    7.7222 C   0  0  0  0  0  0  0  0  0  0  0  0
   -8.0381  -42.3539    7.7682 C   0  0  0  0  0  0  0  0  0  0  0  0
    4.4135  -47.9570    6.9799 H   0  0  0  0  0  0  0  0  0  0  0  0
   -1.0238  -52.5088    6.3511 H   0  0  0  0  0  0  0  0  0  0  0  0
   -3.3522  -51.9758    5.6223 H   0  0  0  0  0  0  0  0  0  0  0  0
   -3.3036  -49.9120    4.2688 H   0  0  0  0  0  0  0  0  0  0  0  0
   -3.7584  -49.5648    5.9715 H   0  0  0  0  0  0  0  0  0  0  0  0
   -2.2291  -47.8483    5.0674 H   0  0  0  0  0  0  0  0  0  0  0  0
    1.5325  -46.6040    5.2252 H   0  0  0  0  0  0  0  0  0  0  0  0
   -0.2616  -46.5142    5.2184 H   0  0  0  0  0  0  0  0  0  0  0  0
    1.6876  -46.0614    7.4900 H   0  0  0  0  0  0  0  0  0  0  0  0
    0.3700  -45.0009    6.8850 H   0  0  0  0  0  0  0  0  0  0  0  0
   -0.8357  -47.4099    7.8736 H   0  0  0  0  0  0  0  0  0  0  0  0
    0.3578  -46.8530    9.0950 H   0  0  0  0  0  0  0  0  0  0  0  0
   -3.4066  -46.0007   10.0630 H   0  0  0  0  0  0  0  0  0  0  0  0
   -5.7131  -45.9745    9.1326 H   0  0  0  0  0  0  0  0  0  0  0  0
   -4.1161  -45.2230    5.2047 H   0  0  0  0  0  0  0  0  0  0  0  0
   -1.8133  -45.2547    6.1297 H   0  0  0  0  0  0  0  0  0  0  0  0
   -8.0414  -40.4402    6.7751 H   0  0  0  0  0  0  0  0  0  0  0  0
   -6.8396  -41.2650    4.7609 H   0  0  0  0  0  0  0  0  0  0  0  0
   -6.0204  -43.6198    4.6823 H   0  0  0  0  0  0  0  0  0  0  0  0
   -7.8108  -44.3590    8.5345 H   0  0  0  0  0  0  0  0  0  0  0  0
   -8.6195  -42.0095    8.6107 H   0  0  0  0  0  0  0  0  0  0  0  0
  1  2  2  0  0  0  0
  2  3  1  0  0  0  0
  2  4  1  0  0  0  0
  4 11  2  0  0  0  0
  4 22  1  0  0  0  0
  5  6  1  0  0  0  0
  5 10  1  0  0  0  0
  5 22  2  0  0  0  0
  6  7  2  0  0  0  0
  7  8  1  0  0  0  0
  8  9  1  0  0  0  0
  9 10  2  0  0  0  0
 10 11  1  0  0  0  0
 11 12  1  0  0  0  0
 12 13  1  0  0  0  0
 13 14  1  0  0  0  0
 14 15  1  0  0  0  0
 15 16  1  0  0  0  0
 16 17  2  0  0  0  0
 16 21  1  0  0  0  0
 17 18  1  0  0  0  0
 18 19  2  0  0  0  0
 19 20  1  0  0  0  0
 19 23  1  0  0  0  0
 20 21  2  0  0  0  0
 23 27  1  0  0  0  0
 24 25  2  0  0  0  0
 24 29  1  0  0  0  0
 25 26  1  0  0  0  0
 26 27  2  0  0  0  0
 27 28  1  0  0  0  0
 28 29  2  0  0  0  0
  3 30  1  0  0  0  0
  6 31  1  0  0  0  0
  7 32  1  0  0  0  0
  8 33  1  0  0  0  0
  8 34  1  0  0  0  0
  9 35  1  0  0  0  0
 12 36  1  0  0  0  0
 12 37  1  0  0  0  0
 13 38  1  0  0  0  0
 13 39  1  0  0  0  0
 14 40  1  0  0  0  0
 14 41  1  0  0  0  0
 17 42  1  0  0  0  0
 18 43  1  0  0  0  0
 20 44  1  0  0  0  0
 21 45  1  0  0  0  0
 24 46  1  0  0  0  0
 25 47  1  0  0  0  0
 26 48  1  0  0  0  0
 28 49  1  0  0  0  0
 29 50  1  0  0  0  0
M  END
> <r_user_dG.exp>
-7.12924538792258

$$$$
41
  -OEChem-05192314073D
 Structure written by MMmdl.
 50 53  0     0  0  0  0  0  0999 V2000
    3.6188  -50.0261    7.1261 O   0  0  0  0  0  0  0  0  0  0  0  0
    2.9664  -49.0185    6.7704 C   0  0  0  0  0  0  0  0  0  0  0  0
    3.5028  -47.8881    6.7185 O   0  0  0  0  0  0  0  0  0  0  0  0
    1.5378  -49.1785    6.4066 C   0  0  0  0  0  0  0  0  0  0  0  0
   -0.3286  -50.4688    6.1368 C   0  0  0  0  0  0  0  0  0  0  0  0
   -1.2909  -51.4982    6.0796 C   0  0  0  0  0  0  0  0  0  0  0  0
   -2.6052  -51.1970    5.6648 C   0  0  0  0  0  0  0  0  0  0  0  0
   -2.9395  -49.8757    5.3061 C   0  0  0  0  0  0  0  0  0  0  0  0
   -1.9616  -48.8533    5.3588 C   0  0  0  0  0  0  0  0  0  0  0  0
   -0.6371  -49.1247    5.7873 C   0  0  0  0  0  0  0  0  0  0  0  0
    0.5443  -48.3227    5.9852 C   0  0  0  0  0  0  0  0  0  0  0  0
    0.6195  -46.8348    5.7937 C   0  0  0  0  0  0  0  0  0  0  0  0
    0.6544  -46.0387    7.1131 C   0  0  0  0  0  0  0  0  0  0  0  0
   -0.2727  -46.5426    8.2488 C   0  0  0  0  0  0  0  0  0  0  0  0
   -1.1995  -45.5833    8.7170 O   0  0  0  0  0  0  0  0  0  0  0  0
   -2.4514  -45.6189    8.1601 C   0  0  0  0  0  0  0  0  0  0  0  0
   -3.5606  -45.8237    9.0088 C   0  0  0  0  0  0  0  0  0  0  0  0
   -4.8673  -45.7979    8.4847 C   0  0  0  0  0  0  0  0  0  0  0  0
   -5.0701  -45.5418    7.1156 C   0  0  0  0  0  0  0  0  0  0  0  0
   -3.9629  -45.3736    6.2631 C   0  0  0  0  0  0  0  0  0  0  0  0
   -2.6590  -45.4011    6.7853 C   0  0  0  0  0  0  0  0  0  0  0  0
    1.0071  -50.4487    6.4916 N   0  0  0  0  0  0  0  0  0  0  0  0
   -6.3410  -45.4189    6.6163 O   0  0  0  0  0  0  0  0  0  0  0  0
   -7.7336  -41.4738    6.7170 C   0  0  0  0  0  0  0  0  0  0  0  0
   -7.0295  -41.9323    5.5886 C   0  0  0  0  0  0  0  0  0  0  0  0
   -6.5719  -43.2667    5.5411 C   0  0  0  0  0  0  0  0  0  0  0  0
   -6.8370  -44.1375    6.6183 C   0  0  0  0  0  0  0  0  0  0  0  0
   -7.5850  -43.6840    7.7222 C   0  0  0  0  0  0  0  0  0  0  0  0
   -8.0381  -42.3539    7.7682 C   0  0  0  0  0  0  0  0  0  0  0  0
    4.4135  -47.9570    6.9799 H   0  0  0  0  0  0  0  0  0  0  0  0
   -1.0238  -52.5088    6.3511 H   0  0  0  0  0  0  0  0  0  0  0  0
   -2.8156  -51.8281    4.7888 H   0  0  0  0  0  0  0  0  0  0  0  0
   -3.2734  -51.4819    6.4909 H   0  0  0  0  0  0  0  0  0  0  0  0
   -3.9454  -49.6422    4.9898 H   0  0  0  0  0  0  0  0  0  0  0  0
   -2.2291  -47.8483    5.0674 H   0  0  0  0  0  0  0  0  0  0  0  0
    1.5325  -46.6040    5.2252 H   0  0  0  0  0  0  0  0  0  0  0  0
   -0.2616  -46.5142    5.2184 H   0  0  0  0  0  0  0  0  0  0  0  0
    1.6876  -46.0614    7.4900 H   0  0  0  0  0  0  0  0  0  0  0  0
    0.3700  -45.0009    6.8850 H   0  0  0  0  0  0  0  0  0  0  0  0
   -0.8357  -47.4099    7.8736 H   0  0  0  0  0  0  0  0  0  0  0  0
    0.3578  -46.8530    9.0950 H   0  0  0  0  0  0  0  0  0  0  0  0
   -3.4066  -46.0007   10.0630 H   0  0  0  0  0  0  0  0  0  0  0  0
   -5.7131  -45.9745    9.1326 H   0  0  0  0  0  0  0  0  0  0  0  0
   -4.1161  -45.2230    5.2047 H   0  0  0  0  0  0  0  0  0  0  0  0
   -1.8133  -45.2547    6.1297 H   0  0  0  0  0  0  0  0  0  0  0  0
   -8.0414  -40.4402    6.7751 H   0  0  0  0  0  0  0  0  0  0  0  0
   -6.8396  -41.2650    4.7609 H   0  0  0  0  0  0  0  0  0  0  0  0
   -6.0204  -43.6198    4.6823 H   0  0  0  0  0  0  0  0  0  0  0  0
   -7.8108  -44.3590    8.5345 H   0  0  0  0  0  0  0  0  0  0  0  0
   -8.6195  -42.0095    8.6107 H   0  0  0  0  0  0  0  0  0  0  0  0
  1  2  2  0  0  0  0
  2  3  1  0  0  0  0
  2  4  1  0  0  0  0
  4 11  1  0  0  0  0
  4 22  2  0  0  0  0
  5  6  2  0  0  0  0
  5 10  1  0  0  0  0
  5 22  1  0  0  0  0
  6  7  1  0  0  0  0
  7  8  1  0  0  0  0
  8  9  2  0  0  0  0
  9 10  1  0  0  0  0
 10 11  2  0  0  0  0
 11 12  1  0  0  0  0
 12 13  1  0  0  0  0
 13 14  1  0  0  0  0
 14 15  1  0  0  0  0
 15 16  1  0  0  0  0
 16 17  2  0  0  0  0
 16 21  1  0  0  0  0
 17 18  1  0  0  0  0
 18 19  2  0  0  0  0
 19 20  1  0  0  0  0
 19 23  1  0  0  0  0
 20 21  2  0  0  0  0
 23 27  1  0  0  0  0
 24 25  2  0  0  0  0
 24 29  1  0  0  0  0
 25 26  1  0  0  0  0
 26 27  2  0  0  0  0
 27 28  1  0  0  0  0
 28 29  2  0  0  0  0
  3 30  1  0  0  0  0
  6 31  1  0  0  0  0
  7 32  1  0  0  0  0
  7 33  1  0  0  0  0
  8 34  1  0  0  0  0
  9 35  1  0  0  0  0
 12 36  1  0  0  0  0
 12 37  1  0  0  0  0
 13 38  1  0  0  0  0
 13 39  1  0  0  0  0
 14 40  1  0  0  0  0
 14 41  1  0  0  0  0
 17 42  1  0  0  0  0
 18 43  1  0  0  0  0
 20 44  1  0  0  0  0
 21 45  1  0  0  0  0
 24 46  1  0  0  0  0
 25 47  1  0  0  0  0
 26 48  1  0  0  0  0
 28 49  1  0  0  0  0
 29 50  1  0  0  0  0
M  END
> <r_user_dG.exp>
-7.12924538792258

$$$$
41
  -OEChem-05192314073D
 Structure written by MMmdl.
 50 53  0     0  0  0  0  0  0999 V2000
    3.6188  -50.0261    7.1261 O   0  0  0  0  0  0  0  0  0  0  0  0
    2.9664  -49.0185    6.7704 C   0  0  0  0  0  0  0  0  0  0  0  0
    3.5028  -47.8881    6.7185 O   0  0  0  0  0  0  0  0  0  0  0  0
    1.5378  -49.1785    6.4066 C   0  0  0  0  0  0  0  0  0  0  0  0
   -0.3286  -50.4688    6.1368 C   0  0  0  0  0  0  0  0  0  0  0  0
   -1.2909  -51.4982    6.0796 C   0  0  0  0  0  0  0  0  0  0  0  0
   -2.6052  -51.1970    5.6648 C   0  0  0  0  0  0  0  0  0  0  0  0
   -2.9395  -49.8757    5.3061 C   0  0  0  0  0  0  0  0  0  0  0  0
   -1.9616  -48.8533    5.3588 C   0  0  0  0  0  0  0  0  0  0  0  0
   -0.6371  -49.1247    5.7873 C   0  0  0  0  0  0  0  0  0  0  0  0
    0.5443  -48.3227    5.9852 C   0  0  0  0  0  0  0  0  0  0  0  0
    0.6195  -46.8348    5.7937 C   0  0  0  0  0  0  0  0  0  0  0  0
    0.6544  -46.0387    7.1131 C   0  0  0  0  0  0  0  0  0  0  0  0
   -0.2727  -46.5426    8.2488 C   0  0  0  0  0  0  0  0  0  0  0  0
   -1.1995  -45.5833    8.7170 O   0  0  0  0  0  0  0  0  0  0  0  0
   -2.4514  -45.6189    8.1601 C   0  0  0  0  0  0  0  0  0  0  0  0
   -3.5606  -45.8237    9.0088 C   0  0  0  0  0  0  0  0  0  0  0  0
   -4.8673  -45.7979    8.4847 C   0  0  0  0  0  0  0  0  0  0  0  0
   -5.0701  -45.5418    7.1156 C   0  0  0  0  0  0  0  0  0  0  0  0
   -3.9629  -45.3736    6.2631 C   0  0  0  0  0  0  0  0  0  0  0  0
   -2.6590  -45.4011    6.7853 C   0  0  0  0  0  0  0  0  0  0  0  0
    1.0071  -50.4487    6.4916 N   0  0  0  0  0  0  0  0  0  0  0  0
   -6.3410  -45.4189    6.6163 O   0  0  0  0  0  0  0  0  0  0  0  0
   -7.7336  -41.4738    6.7170 C   0  0  0  0  0  0  0  0  0  0  0  0
   -7.0295  -41.9323    5.5886 C   0  0  0  0  0  0  0  0  0  0  0  0
   -6.5719  -43.2667    5.5411 C   0  0  0  0  0  0  0  0  0  0  0  0
   -6.8370  -44.1375    6.6183 C   0  0  0  0  0  0  0  0  0  0  0  0
   -7.5850  -43.6840    7.7222 C   0  0  0  0  0  0  0  0  0  0  0  0
   -8.0381  -42.3539    7.7682 C   0  0  0  0  0  0  0  0  0  0  0  0
    4.4135  -47.9570    6.9799 H   0  0  0  0  0  0  0  0  0  0  0  0
   -0.9035  -52.2605    5.3876 H   0  0  0  0  0  0  0  0  0  0  0  0
   -1.3642  -51.9245    7.0910 H   0  0  0  0  0  0  0  0  0  0  0  0
   -3.3522  -51.9758    5.6223 H   0  0  0  0  0  0  0  0  0  0  0  0
   -3.9454  -49.6422    4.9898 H   0  0  0  0  0  0  0  0  0  0  0  0
   -2.2291  -47.8483    5.0674 H   0  0  0  0  0  0  0  0  0  0  0  0
    1.5325  -46.6040    5.2252 H   0  0  0  0  0  0  0  0  0  0  0  0
   -0.2616  -46.5142    5.2184 H   0  0  0  0  0  0  0  0  0  0  0  0
    1.6876  -46.0614    7.4900 H   0  0  0  0  0  0  0  0  0  0  0  0
    0.3700  -45.0009    6.8850 H   0  0  0  0  0  0  0  0  0  0  0  0
   -0.8357  -47.4099    7.8736 H   0  0  0  0  0  0  0  0  0  0  0  0
    0.3578  -46.8530    9.0950 H   0  0  0  0  0  0  0  0  0  0  0  0
   -3.4066  -46.0007   10.0630 H   0  0  0  0  0  0  0  0  0  0  0  0
   -5.7131  -45.9745    9.1326 H   0  0  0  0  0  0  0  0  0  0  0  0
   -4.1161  -45.2230    5.2047 H   0  0  0  0  0  0  0  0  0  0  0  0
   -1.8133  -45.2547    6.1297 H   0  0  0  0  0  0  0  0  0  0  0  0
   -8.0414  -40.4402    6.7751 H   0  0  0  0  0  0  0  0  0  0  0  0
   -6.8396  -41.2650    4.7609 H   0  0  0  0  0  0  0  0  0  0  0  0
   -6.0204  -43.6198    4.6823 H   0  0  0  0  0  0  0  0  0  0  0  0
   -7.8108  -44.3590    8.5345 H   0  0  0  0  0  0  0  0  0  0  0  0
   -8.6195  -42.0095    8.6107 H   0  0  0  0  0  0  0  0  0  0  0  0
  1  2  2  0  0  0  0
  2  3  1  0  0  0  0
  2  4  1  0  0  0  0
  4 11  2  0  0  0  0
  4 22  1  0  0  0  0
  5  6  1  0  0  0  0
  5 10  1  0  0  0  0
  5 22  2  0  0  0  0
  6  7  1  0  0  0  0
  7  8  2  0  0  0  0
  8  9  1  0  0  0  0
  9 10  2  0  0  0  0
 10 11  1  0  0  0  0
 11 12  1  0  0  0  0
 12 13  1  0  0  0  0
 13 14  1  0  0  0  0
 14 15  1  0  0  0  0
 15 16  1  0  0  0  0
 16 17  2  0  0  0  0
 16 21  1  0  0  0  0
 17 18  1  0  0  0  0
 18 19  2  0  0  0  0
 19 20  1  0  0  0  0
 19 23  1  0  0  0  0
 20 21  2  0  0  0  0
 23 27  1  0  0  0  0
 24 25  2  0  0  0  0
 24 29  1  0  0  0  0
 25 26  1  0  0  0  0
 26 27  2  0  0  0  0
 27 28  1  0  0  0  0
 28 29  2  0  0  0  0
  3 30  1  0  0  0  0
  6 31  1  0  0  0  0
  6 32  1  0  0  0  0
  7 33  1  0  0  0  0
  8 34  1  0  0  0  0
  9 35  1  0  0  0  0
 12 36  1  0  0  0  0
 12 37  1  0  0  0  0
 13 38  1  0  0  0  0
 13 39  1  0  0  0  0
 14 40  1  0  0  0  0
 14 41  1  0  0  0  0
 17 42  1  0  0  0  0
 18 43  1  0  0  0  0
 20 44  1  0  0  0  0
 21 45  1  0  0  0  0
 24 46  1  0  0  0  0
 25 47  1  0  0  0  0
 26 48  1  0  0  0  0
 28 49  1  0  0  0  0
 29 50  1  0  0  0  0
M  END
> <r_user_dG.exp>
-7.12924538792258

$$$$
41
  -OEChem-05192314073D
 Structure written by MMmdl.
 50 53  0     0  0  0  0  0  0999 V2000
    3.6188  -50.0261    7.1261 O   0  0  0  0  0  0  0  0  0  0  0  0
    2.9664  -49.0185    6.7704 C   0  0  0  0  0  0  0  0  0  0  0  0
    3.5028  -47.8881    6.7185 O   0  0  0  0  0  0  0  0  0  0  0  0
    1.5378  -49.1785    6.4066 C   0  0  0  0  0  0  0  0  0  0  0  0
   -0.3286  -50.4688    6.1368 C   0  0  0  0  0  0  0  0  0  0  0  0
   -1.2909  -51.4982    6.0796 C   0  0  0  0  0  0  0  0  0  0  0  0
   -2.6052  -51.1970    5.6648 C   0  0  0  0  0  0  0  0  0  0  0  0
   -2.9395  -49.8757    5.3061 C   0  0  0  0  0  0  0  0  0  0  0  0
   -1.9616  -48.8533    5.3588 C   0  0  0  0  0  0  0  0  0  0  0  0
   -0.6371  -49.1247    5.7873 C   0  0  0  0  0  0  0  0  0  0  0  0
    0.5443  -48.3227    5.9852 C   0  0  0  0  0  0  0  0  0  0  0  0
    0.6195  -46.8348    5.7937 C   0  0  0  0  0  0  0  0  0  0  0  0
    0.6544  -46.0387    7.1131 C   0  0  0  0  0  0  0  0  0  0  0  0
   -0.2727  -46.5426    8.2488 C   0  0  0  0  0  0  0  0  0  0  0  0
   -1.1995  -45.5833    8.7170 O   0  0  0  0  0  0  0  0  0  0  0  0
   -2.4514  -45.6189    8.1601 C   0  0  0  0  0  0  0  0  0  0  0  0
   -3.5606  -45.8237    9.0088 C   0  0  0  0  0  0  0  0  0  0  0  0
   -4.8673  -45.7979    8.4847 C   0  0  0  0  0  0  0  0  0  0  0  0
   -5.0701  -45.5418    7.1156 C   0  0  0  0  0  0  0  0  0  0  0  0
   -3.9629  -45.3736    6.2631 C   0  0  0  0  0  0  0  0  0  0  0  0
   -2.6590  -45.4011    6.7853 C   0  0  0  0  0  0  0  0  0  0  0  0
    1.0071  -50.4487    6.4916 N   0  0  0  0  0  0  0  0  0  0  0  0
   -6.3410  -45.4189    6.6163 O   0  0  0  0  0  0  0  0  0  0  0  0
   -7.7336  -41.4738    6.7170 C   0  0  0  0  0  0  0  0  0  0  0  0
   -7.0295  -41.9323    5.5886 C   0  0  0  0  0  0  0  0  0  0  0  0
   -6.5719  -43.2667    5.5411 C   0  0  0  0  0  0  0  0  0  0  0  0
   -6.8370  -44.1375    6.6183 C   0  0  0  0  0  0  0  0  0  0  0  0
   -7.5850  -43.6840    7.7222 C   0  0  0  0  0  0  0  0  0  0  0  0
   -8.0381  -42.3539    7.7682 C   0  0  0  0  0  0  0  0  0  0  0  0
    4.4135  -47.9570    6.9799 H   0  0  0  0  0  0  0  0  0  0  0  0
   -1.0238  -52.5088    6.3511 H   0  0  0  0  0  0  0  0  0  0  0  0
   -3.3522  -51.9758    5.6223 H   0  0  0  0  0  0  0  0  0  0  0  0
   -3.9454  -49.6422    4.9898 H   0  0  0  0  0  0  0  0  0  0  0  0
   -1.8823  -48.4450    4.3405 H   0  0  0  0  0  0  0  0  0  0  0  0
   -2.3555  -48.0797    6.0344 H   0  0  0  0  0  0  0  0  0  0  0  0
    1.5325  -46.6040    5.2252 H   0  0  0  0  0  0  0  0  0  0  0  0
   -0.2616  -46.5142    5.2184 H   0  0  0  0  0  0  0  0  0  0  0  0
    1.6876  -46.0614    7.4900 H   0  0  0  0  0  0  0  0  0  0  0  0
    0.3700  -45.0009    6.8850 H   0  0  0  0  0  0  0  0  0  0  0  0
   -0.8357  -47.4099    7.8736 H   0  0  0  0  0  0  0  0  0  0  0  0
    0.3578  -46.8530    9.0950 H   0  0  0  0  0  0  0  0  0  0  0  0
   -3.4066  -46.0007   10.0630 H   0  0  0  0  0  0  0  0  0  0  0  0
   -5.7131  -45.9745    9.1326 H   0  0  0  0  0  0  0  0  0  0  0  0
   -4.1161  -45.2230    5.2047 H   0  0  0  0  0  0  0  0  0  0  0  0
   -1.8133  -45.2547    6.1297 H   0  0  0  0  0  0  0  0  0  0  0  0
   -8.0414  -40.4402    6.7751 H   0  0  0  0  0  0  0  0  0  0  0  0
   -6.8396  -41.2650    4.7609 H   0  0  0  0  0  0  0  0  0  0  0  0
   -6.0204  -43.6198    4.6823 H   0  0  0  0  0  0  0  0  0  0  0  0
   -7.8108  -44.3590    8.5345 H   0  0  0  0  0  0  0  0  0  0  0  0
   -8.6195  -42.0095    8.6107 H   0  0  0  0  0  0  0  0  0  0  0  0
  1  2  2  0  0  0  0
  2  3  1  0  0  0  0
  2  4  1  0  0  0  0
  4 11  1  0  0  0  0
  4 22  2  0  0  0  0
  5  6  2  0  0  0  0
  5 10  1  0  0  0  0
  5 22  1  0  0  0  0
  6  7  1  0  0  0  0
  7  8  2  0  0  0  0
  8  9  1  0  0  0  0
  9 10  1  0  0  0  0
 10 11  2  0  0  0  0
 11 12  1  0  0  0  0
 12 13  1  0  0  0  0
 13 14  1  0  0  0  0
 14 15  1  0  0  0  0
 15 16  1  0  0  0  0
 16 17  2  0  0  0  0
 16 21  1  0  0  0  0
 17 18  1  0  0  0  0
 18 19  2  0  0  0  0
 19 20  1  0  0  0  0
 19 23  1  0  0  0  0
 20 21  2  0  0  0  0
 23 27  1  0  0  0  0
 24 25  2  0  0  0  0
 24 29  1  0  0  0  0
 25 26  1  0  0  0  0
 26 27  2  0  0  0  0
 27 28  1  0  0  0  0
 28 29  2  0  0  0  0
  3 30  1  0  0  0  0
  6 31  1  0  0  0  0
  7 32  1  0  0  0  0
  8 33  1  0  0  0  0
  9 34  1  0  0  0  0
  9 35  1  0  0  0  0
 12 36  1  0  0  0  0
 12 37  1  0  0  0  0
 13 38  1  0  0  0  0
 13 39  1  0  0  0  0
 14 40  1  0  0  0  0
 14 41  1  0  0  0  0
 17 42  1  0  0  0  0
 18 43  1  0  0  0  0
 20 44  1  0  0  0  0
 21 45  1  0  0  0  0
 24 46  1  0  0  0  0
 25 47  1  0  0  0  0
 26 48  1  0  0  0  0
 28 49  1  0  0  0  0
 29 50  1  0  0  0  0
M  END
> <r_user_dG.exp>
-7.12924538792258

$$$$
41
  -OEChem-05192314073D
 Structure written by MMmdl.
 50 53  0     0  0  0  0  0  0999 V2000
    3.6188  -50.0261    7.1261 O   0  0  0  0  0  0  0  0  0  0  0  0
    2.9664  -49.0185    6.7704 C   0  0  0  0  0  0  0  0  0  0  0  0
    3.5028  -47.8881    6.7185 O   0  0  0  0  0  0  0  0  0  0  0  0
    1.5378  -49.1785    6.4066 C   0  0  0  0  0  0  0  0  0  0  0  0
   -0.3286  -50.4688    6.1368 C   0  0  0  0  0  0  0  0  0  0  0  0
   -1.2909  -51.4982    6.0796 C   0  0  0  0  0  0  0  0  0  0  0  0
   -2.6052  -51.1970    5.6648 C   0  0  0  0  0  0  0  0  0  0  0  0
   -2.9395  -49.8757    5.3061 C   0  0  0  0  0  0  0  0  0  0  0  0
   -1.9616  -48.8533    5.3588 C   0  0  0  0  0  0  0  0  0  0  0  0
   -0.6371  -49.1247    5.7873 C   0  0  0  0  0  0  0  0  0  0  0  0
    0.5443  -48.3227    5.9852 C   0  0  0  0  0  0  0  0  0  0  0  0
    0.6195  -46.8348    5.7937 C   0  0  0  0  0  0  0  0  0  0  0  0
    0.6544  -46.0387    7.1131 C   0  0  0  0  0  0  0  0  0  0  0  0
   -0.2727  -46.5426    8.2488 C   0  0  0  0  0  0  0  0  0  0  0  0
   -1.1995  -45.5833    8.7170 O   0  0  0  0  0  0  0  0  0  0  0  0
   -2.4514  -45.6189    8.1601 C   0  0  0  0  0  0  0  0  0  0  0  0
   -3.5606  -45.8237    9.0088 C   0  0  0  0  0  0  0  0  0  0  0  0
   -4.8673  -45.7979    8.4847 C   0  0  0  0  0  0  0  0  0  0  0  0
   -5.0701  -45.5418    7.1156 C   0  0  0  0  0  0  0  0  0  0  0  0
   -3.9629  -45.3736    6.2631 C   0  0  0  0  0  0  0  0  0  0  0  0
   -2.6590  -45.4011    6.7853 C   0  0  0  0  0  0  0  0  0  0  0  0
    1.0071  -50.4487    6.4916 N   0  0  0  0  0  0  0  0  0  0  0  0
   -6.3410  -45.4189    6.6163 O   0  0  0  0  0  0  0  0  0  0  0  0
   -7.7336  -41.4738    6.7170 C   0  0  0  0  0  0  0  0  0  0  0  0
   -7.0295  -41.9323    5.5886 C   0  0  0  0  0  0  0  0  0  0  0  0
   -6.5719  -43.2667    5.5411 C   0  0  0  0  0  0  0  0  0  0  0  0
   -6.8370  -44.1375    6.6183 C   0  0  0  0  0  0  0  0  0  0  0  0
   -7.5850  -43.6840    7.7222 C   0  0  0  0  0  0  0  0  0  0  0  0
   -8.0381  -42.3539    7.7682 C   0  0  0  0  0  0  0  0  0  0  0  0
    3.0561  -50.7913    7.1066 H   0  0  0  0  0  0  0  0  0  0  0  0
    2.8637  -47.2467    6.4308 H   0  0  0  0  0  0  0  0  0  0  0  0
   -1.0238  -52.5088    6.3511 H   0  0  0  0  0  0  0  0  0  0  0  0
   -3.3522  -51.9758    5.6223 H   0  0  0  0  0  0  0  0  0  0  0  0
   -3.9454  -49.6422    4.9898 H   0  0  0  0  0  0  0  0  0  0  0  0
   -2.2291  -47.8483    5.0674 H   0  0  0  0  0  0  0  0  0  0  0  0
    1.5325  -46.6040    5.2252 H   0  0  0  0  0  0  0  0  0  0  0  0
   -0.2616  -46.5142    5.2184 H   0  0  0  0  0  0  0  0  0  0  0  0
    1.6876  -46.0614    7.4900 H   0  0  0  0  0  0  0  0  0  0  0  0
    0.3700  -45.0009    6.8850 H   0  0  0  0  0  0  0  0  0  0  0  0
   -0.8357  -47.4099    7.8736 H   0  0  0  0  0  0  0  0  0  0  0  0
    0.3578  -46.8530    9.0950 H   0  0  0  0  0  0  0  0  0  0  0  0
   -3.4066  -46.0007   10.0630 H   0  0  0  0  0  0  0  0  0  0  0  0
   -5.7131  -45.9745    9.1326 H   0  0  0  0  0  0  0  0  0  0  0  0
   -4.1161  -45.2230    5.2047 H   0  0  0  0  0  0  0  0  0  0  0  0
   -1.8133  -45.2547    6.1297 H   0  0  0  0  0  0  0  0  0  0  0  0
   -8.0414  -40.4402    6.7751 H   0  0  0  0  0  0  0  0  0  0  0  0
   -6.8396  -41.2650    4.7609 H   0  0  0  0  0  0  0  0  0  0  0  0
   -6.0204  -43.6198    4.6823 H   0  0  0  0  0  0  0  0  0  0  0  0
   -7.8108  -44.3590    8.5345 H   0  0  0  0  0  0  0  0  0  0  0  0
   -8.6195  -42.0095    8.6107 H   0  0  0  0  0  0  0  0  0  0  0  0
  1  2  1  0  0  0  0
  2  3  1  0  0  0  0
  2  4  2  0  0  0  0
  4 11  1  0  0  0  0
  4 22  1  0  0  0  0
  5  6  1  0  0  0  0
  5 10  1  0  0  0  0
  5 22  2  0  0  0  0
  6  7  2  0  0  0  0
  7  8  1  0  0  0  0
  8  9  2  0  0  0  0
  9 10  1  0  0  0  0
 10 11  2  0  0  0  0
 11 12  1  0  0  0  0
 12 13  1  0  0  0  0
 13 14  1  0  0  0  0
 14 15  1  0  0  0  0
 15 16  1  0  0  0  0
 16 17  2  0  0  0  0
 16 21  1  0  0  0  0
 17 18  1  0  0  0  0
 18 19  2  0  0  0  0
 19 20  1  0  0  0  0
 19 23  1  0  0  0  0
 20 21  2  0  0  0  0
 23 27  1  0  0  0  0
 24 25  2  0  0  0  0
 24 29  1  0  0  0  0
 25 26  1  0  0  0  0
 26 27  2  0  0  0  0
 27 28  1  0  0  0  0
 28 29  2  0  0  0  0
  1 30  1  0  0  0  0
  3 31  1  0  0  0  0
  6 32  1  0  0  0  0
  7 33  1  0  0  0  0
  8 34  1  0  0  0  0
  9 35  1  0  0  0  0
 12 36  1  0  0  0  0
 12 37  1  0  0  0  0
 13 38  1  0  0  0  0
 13 39  1  0  0  0  0
 14 40  1  0  0  0  0
 14 41  1  0  0  0  0
 17 42  1  0  0  0  0
 18 43  1  0  0  0  0
 20 44  1  0  0  0  0
 21 45  1  0  0  0  0
 24 46  1  0  0  0  0
 25 47  1  0  0  0  0
 26 48  1  0  0  0  0
 28 49  1  0  0  0  0
 29 50  1  0  0  0  0
M  END
> <r_user_dG.exp>
-7.12924538792258

$$$$
