38
  -OEChem-05192314073D
 Structure written by MMmdl.
 49 52  0     0  0  0  0  0  0999 V2000
    3.5933  -49.9991    7.5555 O   0  0  0  0  0  0  0  0  0  0  0  0
    3.0001  -49.0713    6.9544 C   0  0  0  0  0  0  0  0  0  0  0  0
    3.5624  -47.9815    6.7110 O   0  0  0  0  0  0  0  0  0  0  0  0
    1.5917  -49.2744    6.5446 C   0  0  0  0  0  0  0  0  0  0  0  0
   -0.3051  -50.5537    6.4875 C   0  0  0  0  0  0  0  0  0  0  0  0
   -1.2894  -51.5592    6.6189 C   0  0  0  0  0  0  0  0  0  0  0  0
   -2.5514  -51.3707    6.0210 C   0  0  0  0  0  0  0  0  0  0  0  0
   -2.8162  -50.1743    5.3187 C   0  0  0  0  0  0  0  0  0  0  0  0
   -1.8241  -49.1776    5.2080 C   0  0  0  0  0  0  0  0  0  0  0  0
   -0.5385  -49.3399    5.7780 C   0  0  0  0  0  0  0  0  0  0  0  0
    0.6726  -48.5474    5.8120 C   0  0  0  0  0  0  0  0  0  0  0  0
    0.9017  -47.2144    5.1306 C   0  0  0  0  0  0  0  0  0  0  0  0
    0.4907  -45.9835    5.9602 C   0  0  0  0  0  0  0  0  0  0  0  0
   -1.0329  -45.8412    6.1442 C   0  0  0  0  0  0  0  0  0  0  0  0
   -1.4399  -46.5418    7.3177 O   0  0  0  0  0  0  0  0  0  0  0  0
   -2.6980  -46.2729    7.8035 C   0  0  0  0  0  0  0  0  0  0  0  0
   -3.7548  -45.7256    7.0283 C   0  0  0  0  0  0  0  0  0  0  0  0
   -5.0251  -45.4767    7.6009 C   0  0  0  0  0  0  0  0  0  0  0  0
   -5.2110  -45.7620    8.9755 C   0  0  0  0  0  0  0  0  0  0  0  0
   -4.1688  -46.3092    9.7409 C   0  0  0  0  0  0  0  0  0  0  0  0
   -2.9221  -46.5642    9.1578 C   0  0  0  0  0  0  0  0  0  0  0  0
    1.0006  -50.4682    6.9462 N   0  0  0  0  0  0  0  0  0  0  0  0
   -8.2961  -43.9825    5.1869 C   0  0  0  0  0  0  0  0  0  0  0  0
   -6.9685  -43.6324    4.8677 C   0  0  0  0  0  0  0  0  0  0  0  0
   -5.9075  -44.1038    5.6742 C   0  0  0  0  0  0  0  0  0  0  0  0
   -6.1471  -44.9439    6.7916 C   0  0  0  0  0  0  0  0  0  0  0  0
   -7.4945  -45.2646    7.0984 C   0  0  0  0  0  0  0  0  0  0  0  0
   -8.5569  -44.7797    6.3153 C   0  0  0  0  0  0  0  0  0  0  0  0
    4.4512  -48.0015    7.0459 H   0  0  0  0  0  0  0  0  0  0  0  0
   -1.0767  -52.4623    7.1716 H   0  0  0  0  0  0  0  0  0  0  0  0
   -3.3103  -52.1352    6.0992 H   0  0  0  0  0  0  0  0  0  0  0  0
   -3.7838  -50.0216    4.8638 H   0  0  0  0  0  0  0  0  0  0  0  0
   -2.0514  -48.2666    4.6743 H   0  0  0  0  0  0  0  0  0  0  0  0
    1.9737  -47.1284    4.8996 H   0  0  0  0  0  0  0  0  0  0  0  0
    0.3231  -47.2048    4.1951 H   0  0  0  0  0  0  0  0  0  0  0  0
    0.9546  -46.0641    6.9544 H   0  0  0  0  0  0  0  0  0  0  0  0
    0.8650  -45.0821    5.4529 H   0  0  0  0  0  0  0  0  0  0  0  0
   -1.2918  -44.7768    6.2448 H   0  0  0  0  0  0  0  0  0  0  0  0
   -1.5484  -46.2628    5.2687 H   0  0  0  0  0  0  0  0  0  0  0  0
   -3.5866  -45.4959    5.9865 H   0  0  0  0  0  0  0  0  0  0  0  0
   -6.1642  -45.5566    9.4398 H   0  0  0  0  0  0  0  0  0  0  0  0
   -4.3299  -46.5345   10.7848 H   0  0  0  0  0  0  0  0  0  0  0  0
   -2.1275  -46.9879    9.7541 H   0  0  0  0  0  0  0  0  0  0  0  0
    1.4565  -51.1707    7.4927 H   0  0  0  0  0  0  0  0  0  0  0  0
   -9.1107  -43.6393    4.5664 H   0  0  0  0  0  0  0  0  0  0  0  0
   -6.7630  -43.0072    4.0114 H   0  0  0  0  0  0  0  0  0  0  0  0
   -4.8938  -43.8184    5.4346 H   0  0  0  0  0  0  0  0  0  0  0  0
   -7.7084  -45.8934    7.9500 H   0  0  0  0  0  0  0  0  0  0  0  0
   -9.5757  -45.0202    6.5812 H   0  0  0  0  0  0  0  0  0  0  0  0
  1  2  2  0  0  0  0
  2  3  1  0  0  0  0
  2  4  1  0  0  0  0
  4 11  2  0  0  0  0
  4 22  1  0  0  0  0
  5  6  2  0  0  0  0
  5 10  1  0  0  0  0
  5 22  1  0  0  0  0
  6  7  1  0  0  0  0
  7  8  2  0  0  0  0
  8  9  1  0  0  0  0
  9 10  2  0  0  0  0
 10 11  1  0  0  0  0
 11 12  1  0  0  0  0
 12 13  1  0  0  0  0
 13 14  1  0  0  0  0
 14 15  1  0  0  0  0
 15 16  1  0  0  0  0
 16 17  2  0  0  0  0
 16 21  1  0  0  0  0
 17 18  1  0  0  0  0
 18 19  2  0  0  0  0
 18 26  1  0  0  0  0
 19 20  1  0  0  0  0
 20 21  2  0  0  0  0
 23 24  2  0  0  0  0
 23 28  1  0  0  0  0
 24 25  1  0  0  0  0
 25 26  2  0  0  0  0
 26 27  1  0  0  0  0
 27 28  2  0  0  0  0
  3 29  1  0  0  0  0
  6 30  1  0  0  0  0
  7 31  1  0  0  0  0
  8 32  1  0  0  0  0
  9 33  1  0  0  0  0
 12 34  1  0  0  0  0
 12 35  1  0  0  0  0
 13 36  1  0  0  0  0
 13 37  1  0  0  0  0
 14 38  1  0  0  0  0
 14 39  1  0  0  0  0
 17 40  1  0  0  0  0
 19 41  1  0  0  0  0
 20 42  1  0  0  0  0
 21 43  1  0  0  0  0
 22 44  1  0  0  0  0
 23 45  1  0  0  0  0
 24 46  1  0  0  0  0
 25 47  1  0  0  0  0
 27 48  1  0  0  0  0
 28 49  1  0  0  0  0
M  END
> <r_user_dG.exp>
-7.01900763427615

$$$$
38
  -OEChem-05192314073D
 Structure written by MMmdl.
 49 52  0     1  0  0  0  0  0999 V2000
    3.5933  -49.9991    7.5555 O   0  0  0  0  0  0  0  0  0  0  0  0
    3.0001  -49.0713    6.9544 C   0  0  0  0  0  0  0  0  0  0  0  0
    3.5624  -47.9815    6.7110 O   0  0  0  0  0  0  0  0  0  0  0  0
    1.5917  -49.2744    6.5446 C   0  0  0  0  0  0  0  0  0  0  0  0
   -0.3051  -50.5537    6.4875 C   0  0  0  0  0  0  0  0  0  0  0  0
   -1.2894  -51.5592    6.6189 C   0  0  0  0  0  0  0  0  0  0  0  0
   -2.5514  -51.3707    6.0210 C   0  0  0  0  0  0  0  0  0  0  0  0
   -2.8162  -50.1743    5.3187 C   0  0  0  0  0  0  0  0  0  0  0  0
   -1.8241  -49.1776    5.2080 C   0  0  0  0  0  0  0  0  0  0  0  0
   -0.5385  -49.3399    5.7780 C   0  0  0  0  0  0  0  0  0  0  0  0
    0.6726  -48.5474    5.8120 C   0  0  3  0  0  0  0  0  0  0  0  0
    0.9017  -47.2144    5.1306 C   0  0  0  0  0  0  0  0  0  0  0  0
    0.4907  -45.9835    5.9602 C   0  0  0  0  0  0  0  0  0  0  0  0
   -1.0329  -45.8412    6.1442 C   0  0  0  0  0  0  0  0  0  0  0  0
   -1.4399  -46.5418    7.3177 O   0  0  0  0  0  0  0  0  0  0  0  0
   -2.6980  -46.2729    7.8035 C   0  0  0  0  0  0  0  0  0  0  0  0
   -3.7548  -45.7256    7.0283 C   0  0  0  0  0  0  0  0  0  0  0  0
   -5.0251  -45.4767    7.6009 C   0  0  0  0  0  0  0  0  0  0  0  0
   -5.2110  -45.7620    8.9755 C   0  0  0  0  0  0  0  0  0  0  0  0
   -4.1688  -46.3092    9.7409 C   0  0  0  0  0  0  0  0  0  0  0  0
   -2.9221  -46.5642    9.1578 C   0  0  0  0  0  0  0  0  0  0  0  0
    1.0006  -50.4682    6.9462 N   0  0  0  0  0  0  0  0  0  0  0  0
   -8.2961  -43.9825    5.1869 C   0  0  0  0  0  0  0  0  0  0  0  0
   -6.9685  -43.6324    4.8677 C   0  0  0  0  0  0  0  0  0  0  0  0
   -5.9075  -44.1038    5.6742 C   0  0  0  0  0  0  0  0  0  0  0  0
   -6.1471  -44.9439    6.7916 C   0  0  0  0  0  0  0  0  0  0  0  0
   -7.4945  -45.2646    7.0984 C   0  0  0  0  0  0  0  0  0  0  0  0
   -8.5569  -44.7797    6.3153 C   0  0  0  0  0  0  0  0  0  0  0  0
    4.4512  -48.0015    7.0459 H   0  0  0  0  0  0  0  0  0  0  0  0
   -1.0767  -52.4623    7.1716 H   0  0  0  0  0  0  0  0  0  0  0  0
   -3.3103  -52.1352    6.0992 H   0  0  0  0  0  0  0  0  0  0  0  0
   -3.7838  -50.0216    4.8638 H   0  0  0  0  0  0  0  0  0  0  0  0
   -2.0514  -48.2666    4.6743 H   0  0  0  0  0  0  0  0  0  0  0  0
    0.3288  -48.0368    6.7236 H   0  0  0  0  0  0  0  0  0  0  0  0
    1.9737  -47.1284    4.8996 H   0  0  0  0  0  0  0  0  0  0  0  0
    0.3231  -47.2048    4.1951 H   0  0  0  0  0  0  0  0  0  0  0  0
    0.9546  -46.0641    6.9544 H   0  0  0  0  0  0  0  0  0  0  0  0
    0.8650  -45.0821    5.4529 H   0  0  0  0  0  0  0  0  0  0  0  0
   -1.2918  -44.7768    6.2448 H   0  0  0  0  0  0  0  0  0  0  0  0
   -1.5484  -46.2628    5.2687 H   0  0  0  0  0  0  0  0  0  0  0  0
   -3.5866  -45.4959    5.9865 H   0  0  0  0  0  0  0  0  0  0  0  0
   -6.1642  -45.5566    9.4398 H   0  0  0  0  0  0  0  0  0  0  0  0
   -4.3299  -46.5345   10.7848 H   0  0  0  0  0  0  0  0  0  0  0  0
   -2.1275  -46.9879    9.7541 H   0  0  0  0  0  0  0  0  0  0  0  0
   -9.1107  -43.6393    4.5664 H   0  0  0  0  0  0  0  0  0  0  0  0
   -6.7630  -43.0072    4.0114 H   0  0  0  0  0  0  0  0  0  0  0  0
   -4.8938  -43.8184    5.4346 H   0  0  0  0  0  0  0  0  0  0  0  0
   -7.7084  -45.8934    7.9500 H   0  0  0  0  0  0  0  0  0  0  0  0
   -9.5757  -45.0202    6.5812 H   0  0  0  0  0  0  0  0  0  0  0  0
  1  2  2  0  0  0  0
  2  3  1  0  0  0  0
  2  4  1  0  0  0  0
  4 11  1  0  0  0  0
  4 22  2  0  0  0  0
  5  6  2  0  0  0  0
  5 10  1  0  0  0  0
  5 22  1  0  0  0  0
  6  7  1  0  0  0  0
  7  8  2  0  0  0  0
  8  9  1  0  0  0  0
  9 10  2  0  0  0  0
 10 11  1  0  0  0  0
 11 12  1  0  0  0  0
 12 13  1  0  0  0  0
 13 14  1  0  0  0  0
 14 15  1  0  0  0  0
 15 16  1  0  0  0  0
 16 17  2  0  0  0  0
 16 21  1  0  0  0  0
 17 18  1  0  0  0  0
 18 19  2  0  0  0  0
 18 26  1  0  0  0  0
 19 20  1  0  0  0  0
 20 21  2  0  0  0  0
 23 24  2  0  0  0  0
 23 28  1  0  0  0  0
 24 25  1  0  0  0  0
 25 26  2  0  0  0  0
 26 27  1  0  0  0  0
 27 28  2  0  0  0  0
  3 29  1  0  0  0  0
  6 30  1  0  0  0  0
  7 31  1  0  0  0  0
  8 32  1  0  0  0  0
  9 33  1  0  0  0  0
 11 34  1  0  0  0  0
 12 35  1  0  0  0  0
 12 36  1  0  0  0  0
 13 37  1  0  0  0  0
 13 38  1  0  0  0  0
 14 39  1  0  0  0  0
 14 40  1  0  0  0  0
 17 41  1  0  0  0  0
 19 42  1  0  0  0  0
 20 43  1  0  0  0  0
 21 44  1  0  0  0  0
 23 45  1  0  0  0  0
 24 46  1  0  0  0  0
 25 47  1  0  0  0  0
 27 48  1  0  0  0  0
 28 49  1  0  0  0  0
M  END
> <r_user_dG.exp>
-7.01900763427615

$$$$
38
  -OEChem-05192314073D
 Structure written by MMmdl.
 49 52  0     1  0  0  0  0  0999 V2000
    3.5933  -49.9991    7.5555 O   0  0  0  0  0  0  0  0  0  0  0  0
    3.0001  -49.0713    6.9544 C   0  0  0  0  0  0  0  0  0  0  0  0
    3.5624  -47.9815    6.7110 O   0  0  0  0  0  0  0  0  0  0  0  0
    1.5917  -49.2744    6.5446 C   0  0  3  0  0  0  0  0  0  0  0  0
   -0.3051  -50.5537    6.4875 C   0  0  0  0  0  0  0  0  0  0  0  0
   -1.2894  -51.5592    6.6189 C   0  0  0  0  0  0  0  0  0  0  0  0
   -2.5514  -51.3707    6.0210 C   0  0  0  0  0  0  0  0  0  0  0  0
   -2.8162  -50.1743    5.3187 C   0  0  0  0  0  0  0  0  0  0  0  0
   -1.8241  -49.1776    5.2080 C   0  0  0  0  0  0  0  0  0  0  0  0
   -0.5385  -49.3399    5.7780 C   0  0  0  0  0  0  0  0  0  0  0  0
    0.6726  -48.5474    5.8120 C   0  0  0  0  0  0  0  0  0  0  0  0
    0.9017  -47.2144    5.1306 C   0  0  0  0  0  0  0  0  0  0  0  0
    0.4907  -45.9835    5.9602 C   0  0  0  0  0  0  0  0  0  0  0  0
   -1.0329  -45.8412    6.1442 C   0  0  0  0  0  0  0  0  0  0  0  0
   -1.4399  -46.5418    7.3177 O   0  0  0  0  0  0  0  0  0  0  0  0
   -2.6980  -46.2729    7.8035 C   0  0  0  0  0  0  0  0  0  0  0  0
   -3.7548  -45.7256    7.0283 C   0  0  0  0  0  0  0  0  0  0  0  0
   -5.0251  -45.4767    7.6009 C   0  0  0  0  0  0  0  0  0  0  0  0
   -5.2110  -45.7620    8.9755 C   0  0  0  0  0  0  0  0  0  0  0  0
   -4.1688  -46.3092    9.7409 C   0  0  0  0  0  0  0  0  0  0  0  0
   -2.9221  -46.5642    9.1578 C   0  0  0  0  0  0  0  0  0  0  0  0
    1.0006  -50.4682    6.9462 N   0  0  0  0  0  0  0  0  0  0  0  0
   -8.2961  -43.9825    5.1869 C   0  0  0  0  0  0  0  0  0  0  0  0
   -6.9685  -43.6324    4.8677 C   0  0  0  0  0  0  0  0  0  0  0  0
   -5.9075  -44.1038    5.6742 C   0  0  0  0  0  0  0  0  0  0  0  0
   -6.1471  -44.9439    6.7916 C   0  0  0  0  0  0  0  0  0  0  0  0
   -7.4945  -45.2646    7.0984 C   0  0  0  0  0  0  0  0  0  0  0  0
   -8.5569  -44.7797    6.3153 C   0  0  0  0  0  0  0  0  0  0  0  0
    4.4512  -48.0015    7.0459 H   0  0  0  0  0  0  0  0  0  0  0  0
    1.2476  -48.7873    7.4689 H   0  0  0  0  0  0  0  0  0  0  0  0
   -1.0767  -52.4623    7.1716 H   0  0  0  0  0  0  0  0  0  0  0  0
   -3.3103  -52.1352    6.0992 H   0  0  0  0  0  0  0  0  0  0  0  0
   -3.7838  -50.0216    4.8638 H   0  0  0  0  0  0  0  0  0  0  0  0
   -2.0514  -48.2666    4.6743 H   0  0  0  0  0  0  0  0  0  0  0  0
    1.9737  -47.1284    4.8996 H   0  0  0  0  0  0  0  0  0  0  0  0
    0.3231  -47.2048    4.1951 H   0  0  0  0  0  0  0  0  0  0  0  0
    0.9546  -46.0641    6.9544 H   0  0  0  0  0  0  0  0  0  0  0  0
    0.8650  -45.0821    5.4529 H   0  0  0  0  0  0  0  0  0  0  0  0
   -1.2918  -44.7768    6.2448 H   0  0  0  0  0  0  0  0  0  0  0  0
   -1.5484  -46.2628    5.2687 H   0  0  0  0  0  0  0  0  0  0  0  0
   -3.5866  -45.4959    5.9865 H   0  0  0  0  0  0  0  0  0  0  0  0
   -6.1642  -45.5566    9.4398 H   0  0  0  0  0  0  0  0  0  0  0  0
   -4.3299  -46.5345   10.7848 H   0  0  0  0  0  0  0  0  0  0  0  0
   -2.1275  -46.9879    9.7541 H   0  0  0  0  0  0  0  0  0  0  0  0
   -9.1107  -43.6393    4.5664 H   0  0  0  0  0  0  0  0  0  0  0  0
   -6.7630  -43.0072    4.0114 H   0  0  0  0  0  0  0  0  0  0  0  0
   -4.8938  -43.8184    5.4346 H   0  0  0  0  0  0  0  0  0  0  0  0
   -7.7084  -45.8934    7.9500 H   0  0  0  0  0  0  0  0  0  0  0  0
   -9.5757  -45.0202    6.5812 H   0  0  0  0  0  0  0  0  0  0  0  0
  1  2  2  0  0  0  0
  2  3  1  0  0  0  0
  2  4  1  0  0  0  0
  4 11  1  0  0  0  0
  4 22  1  0  0  0  0
  5  6  1  0  0  0  0
  5 10  1  0  0  0  0
  5 22  2  0  0  0  0
  6  7  2  0  0  0  0
  7  8  1  0  0  0  0
  8  9  2  0  0  0  0
  9 10  1  0  0  0  0
 10 11  2  0  0  0  0
 11 12  1  0  0  0  0
 12 13  1  0  0  0  0
 13 14  1  0  0  0  0
 14 15  1  0  0  0  0
 15 16  1  0  0  0  0
 16 17  2  0  0  0  0
 16 21  1  0  0  0  0
 17 18  1  0  0  0  0
 18 19  2  0  0  0  0
 18 26  1  0  0  0  0
 19 20  1  0  0  0  0
 20 21  2  0  0  0  0
 23 24  2  0  0  0  0
 23 28  1  0  0  0  0
 24 25  1  0  0  0  0
 25 26  2  0  0  0  0
 26 27  1  0  0  0  0
 27 28  2  0  0  0  0
  3 29  1  0  0  0  0
  4 30  1  0  0  0  0
  6 31  1  0  0  0  0
  7 32  1  0  0  0  0
  8 33  1  0  0  0  0
  9 34  1  0  0  0  0
 12 35  1  0  0  0  0
 12 36  1  0  0  0  0
 13 37  1  0  0  0  0
 13 38  1  0  0  0  0
 14 39  1  0  0  0  0
 14 40  1  0  0  0  0
 17 41  1  0  0  0  0
 19 42  1  0  0  0  0
 20 43  1  0  0  0  0
 21 44  1  0  0  0  0
 23 45  1  0  0  0  0
 24 46  1  0  0  0  0
 25 47  1  0  0  0  0
 27 48  1  0  0  0  0
 28 49  1  0  0  0  0
M  END
> <r_user_dG.exp>
-7.01900763427615

$$$$
38
  -OEChem-05192314073D
 Structure written by MMmdl.
 49 52  0     1  0  0  0  0  0999 V2000
    3.5933  -49.9991    7.5555 O   0  0  0  0  0  0  0  0  0  0  0  0
    3.0001  -49.0713    6.9544 C   0  0  0  0  0  0  0  0  0  0  0  0
    3.5624  -47.9815    6.7110 O   0  0  0  0  0  0  0  0  0  0  0  0
    1.5917  -49.2744    6.5446 C   0  0  0  0  0  0  0  0  0  0  0  0
   -0.3051  -50.5537    6.4875 C   0  0  0  0  0  0  0  0  0  0  0  0
   -1.2894  -51.5592    6.6189 C   0  0  0  0  0  0  0  0  0  0  0  0
   -2.5514  -51.3707    6.0210 C   0  0  0  0  0  0  0  0  0  0  0  0
   -2.8162  -50.1743    5.3187 C   0  0  0  0  0  0  0  0  0  0  0  0
   -1.8241  -49.1776    5.2080 C   0  0  0  0  0  0  0  0  0  0  0  0
   -0.5385  -49.3399    5.7780 C   0  0  3  0  0  0  0  0  0  0  0  0
    0.6726  -48.5474    5.8120 C   0  0  0  0  0  0  0  0  0  0  0  0
    0.9017  -47.2144    5.1306 C   0  0  0  0  0  0  0  0  0  0  0  0
    0.4907  -45.9835    5.9602 C   0  0  0  0  0  0  0  0  0  0  0  0
   -1.0329  -45.8412    6.1442 C   0  0  0  0  0  0  0  0  0  0  0  0
   -1.4399  -46.5418    7.3177 O   0  0  0  0  0  0  0  0  0  0  0  0
   -2.6980  -46.2729    7.8035 C   0  0  0  0  0  0  0  0  0  0  0  0
   -3.7548  -45.7256    7.0283 C   0  0  0  0  0  0  0  0  0  0  0  0
   -5.0251  -45.4767    7.6009 C   0  0  0  0  0  0  0  0  0  0  0  0
   -5.2110  -45.7620    8.9755 C   0  0  0  0  0  0  0  0  0  0  0  0
   -4.1688  -46.3092    9.7409 C   0  0  0  0  0  0  0  0  0  0  0  0
   -2.9221  -46.5642    9.1578 C   0  0  0  0  0  0  0  0  0  0  0  0
    1.0006  -50.4682    6.9462 N   0  0  0  0  0  0  0  0  0  0  0  0
   -8.2961  -43.9825    5.1869 C   0  0  0  0  0  0  0  0  0  0  0  0
   -6.9685  -43.6324    4.8677 C   0  0  0  0  0  0  0  0  0  0  0  0
   -5.9075  -44.1038    5.6742 C   0  0  0  0  0  0  0  0  0  0  0  0
   -6.1471  -44.9439    6.7916 C   0  0  0  0  0  0  0  0  0  0  0  0
   -7.4945  -45.2646    7.0984 C   0  0  0  0  0  0  0  0  0  0  0  0
   -8.5569  -44.7797    6.3153 C   0  0  0  0  0  0  0  0  0  0  0  0
    4.4512  -48.0015    7.0459 H   0  0  0  0  0  0  0  0  0  0  0  0
   -1.0767  -52.4623    7.1716 H   0  0  0  0  0  0  0  0  0  0  0  0
   -3.3103  -52.1352    6.0992 H   0  0  0  0  0  0  0  0  0  0  0  0
   -3.7838  -50.0216    4.8638 H   0  0  0  0  0  0  0  0  0  0  0  0
   -2.0514  -48.2666    4.6743 H   0  0  0  0  0  0  0  0  0  0  0  0
   -0.8841  -48.8593    6.7051 H   0  0  0  0  0  0  0  0  0  0  0  0
    1.9737  -47.1284    4.8996 H   0  0  0  0  0  0  0  0  0  0  0  0
    0.3231  -47.2048    4.1951 H   0  0  0  0  0  0  0  0  0  0  0  0
    0.9546  -46.0641    6.9544 H   0  0  0  0  0  0  0  0  0  0  0  0
    0.8650  -45.0821    5.4529 H   0  0  0  0  0  0  0  0  0  0  0  0
   -1.2918  -44.7768    6.2448 H   0  0  0  0  0  0  0  0  0  0  0  0
   -1.5484  -46.2628    5.2687 H   0  0  0  0  0  0  0  0  0  0  0  0
   -3.5866  -45.4959    5.9865 H   0  0  0  0  0  0  0  0  0  0  0  0
   -6.1642  -45.5566    9.4398 H   0  0  0  0  0  0  0  0  0  0  0  0
   -4.3299  -46.5345   10.7848 H   0  0  0  0  0  0  0  0  0  0  0  0
   -2.1275  -46.9879    9.7541 H   0  0  0  0  0  0  0  0  0  0  0  0
   -9.1107  -43.6393    4.5664 H   0  0  0  0  0  0  0  0  0  0  0  0
   -6.7630  -43.0072    4.0114 H   0  0  0  0  0  0  0  0  0  0  0  0
   -4.8938  -43.8184    5.4346 H   0  0  0  0  0  0  0  0  0  0  0  0
   -7.7084  -45.8934    7.9500 H   0  0  0  0  0  0  0  0  0  0  0  0
   -9.5757  -45.0202    6.5812 H   0  0  0  0  0  0  0  0  0  0  0  0
  1  2  2  0  0  0  0
  2  3  1  0  0  0  0
  2  4  1  0  0  0  0
  4 11  2  0  0  0  0
  4 22  1  0  0  0  0
  5  6  1  0  0  0  0
  5 10  1  0  0  0  0
  5 22  2  0  0  0  0
  6  7  2  0  0  0  0
  7  8  1  0  0  0  0
  8  9  2  0  0  0  0
  9 10  1  0  0  0  0
 10 11  1  0  0  0  0
 11 12  1  0  0  0  0
 12 13  1  0  0  0  0
 13 14  1  0  0  0  0
 14 15  1  0  0  0  0
 15 16  1  0  0  0  0
 16 17  2  0  0  0  0
 16 21  1  0  0  0  0
 17 18  1  0  0  0  0
 18 19  2  0  0  0  0
 18 26  1  0  0  0  0
 19 20  1  0  0  0  0
 20 21  2  0  0  0  0
 23 24  2  0  0  0  0
 23 28  1  0  0  0  0
 24 25  1  0  0  0  0
 25 26  2  0  0  0  0
 26 27  1  0  0  0  0
 27 28  2  0  0  0  0
  3 29  1  0  0  0  0
  6 30  1  0  0  0  0
  7 31  1  0  0  0  0
  8 32  1  0  0  0  0
  9 33  1  0  0  0  0
 10 34  1  0  0  0  0
 12 35  1  0  0  0  0
 12 36  1  0  0  0  0
 13 37  1  0  0  0  0
 13 38  1  0  0  0  0
 14 39  1  0  0  0  0
 14 40  1  0  0  0  0
 17 41  1  0  0  0  0
 19 42  1  0  0  0  0
 20 43  1  0  0  0  0
 21 44  1  0  0  0  0
 23 45  1  0  0  0  0
 24 46  1  0  0  0  0
 25 47  1  0  0  0  0
 27 48  1  0  0  0  0
 28 49  1  0  0  0  0
M  END
> <r_user_dG.exp>
-7.01900763427615

$$$$
38
  -OEChem-05192314073D
 Structure written by MMmdl.
 49 52  0     1  0  0  0  0  0999 V2000
    3.5933  -49.9991    7.5555 O   0  0  0  0  0  0  0  0  0  0  0  0
    3.0001  -49.0713    6.9544 C   0  0  0  0  0  0  0  0  0  0  0  0
    3.5624  -47.9815    6.7110 O   0  0  0  0  0  0  0  0  0  0  0  0
    1.5917  -49.2744    6.5446 C   0  0  0  0  0  0  0  0  0  0  0  0
   -0.3051  -50.5537    6.4875 C   0  0  3  0  0  0  0  0  0  0  0  0
   -1.2894  -51.5592    6.6189 C   0  0  0  0  0  0  0  0  0  0  0  0
   -2.5514  -51.3707    6.0210 C   0  0  0  0  0  0  0  0  0  0  0  0
   -2.8162  -50.1743    5.3187 C   0  0  0  0  0  0  0  0  0  0  0  0
   -1.8241  -49.1776    5.2080 C   0  0  0  0  0  0  0  0  0  0  0  0
   -0.5385  -49.3399    5.7780 C   0  0  0  0  0  0  0  0  0  0  0  0
    0.6726  -48.5474    5.8120 C   0  0  0  0  0  0  0  0  0  0  0  0
    0.9017  -47.2144    5.1306 C   0  0  0  0  0  0  0  0  0  0  0  0
    0.4907  -45.9835    5.9602 C   0  0  0  0  0  0  0  0  0  0  0  0
   -1.0329  -45.8412    6.1442 C   0  0  0  0  0  0  0  0  0  0  0  0
   -1.4399  -46.5418    7.3177 O   0  0  0  0  0  0  0  0  0  0  0  0
   -2.6980  -46.2729    7.8035 C   0  0  0  0  0  0  0  0  0  0  0  0
   -3.7548  -45.7256    7.0283 C   0  0  0  0  0  0  0  0  0  0  0  0
   -5.0251  -45.4767    7.6009 C   0  0  0  0  0  0  0  0  0  0  0  0
   -5.2110  -45.7620    8.9755 C   0  0  0  0  0  0  0  0  0  0  0  0
   -4.1688  -46.3092    9.7409 C   0  0  0  0  0  0  0  0  0  0  0  0
   -2.9221  -46.5642    9.1578 C   0  0  0  0  0  0  0  0  0  0  0  0
    1.0006  -50.4682    6.9462 N   0  0  0  0  0  0  0  0  0  0  0  0
   -8.2961  -43.9825    5.1869 C   0  0  0  0  0  0  0  0  0  0  0  0
   -6.9685  -43.6324    4.8677 C   0  0  0  0  0  0  0  0  0  0  0  0
   -5.9075  -44.1038    5.6742 C   0  0  0  0  0  0  0  0  0  0  0  0
   -6.1471  -44.9439    6.7916 C   0  0  0  0  0  0  0  0  0  0  0  0
   -7.4945  -45.2646    7.0984 C   0  0  0  0  0  0  0  0  0  0  0  0
   -8.5569  -44.7797    6.3153 C   0  0  0  0  0  0  0  0  0  0  0  0
    4.4512  -48.0015    7.0459 H   0  0  0  0  0  0  0  0  0  0  0  0
   -0.6625  -50.0815    7.4145 H   0  0  0  0  0  0  0  0  0  0  0  0
   -1.0767  -52.4623    7.1716 H   0  0  0  0  0  0  0  0  0  0  0  0
   -3.3103  -52.1352    6.0992 H   0  0  0  0  0  0  0  0  0  0  0  0
   -3.7838  -50.0216    4.8638 H   0  0  0  0  0  0  0  0  0  0  0  0
   -2.0514  -48.2666    4.6743 H   0  0  0  0  0  0  0  0  0  0  0  0
    1.9737  -47.1284    4.8996 H   0  0  0  0  0  0  0  0  0  0  0  0
    0.3231  -47.2048    4.1951 H   0  0  0  0  0  0  0  0  0  0  0  0
    0.9546  -46.0641    6.9544 H   0  0  0  0  0  0  0  0  0  0  0  0
    0.8650  -45.0821    5.4529 H   0  0  0  0  0  0  0  0  0  0  0  0
   -1.2918  -44.7768    6.2448 H   0  0  0  0  0  0  0  0  0  0  0  0
   -1.5484  -46.2628    5.2687 H   0  0  0  0  0  0  0  0  0  0  0  0
   -3.5866  -45.4959    5.9865 H   0  0  0  0  0  0  0  0  0  0  0  0
   -6.1642  -45.5566    9.4398 H   0  0  0  0  0  0  0  0  0  0  0  0
   -4.3299  -46.5345   10.7848 H   0  0  0  0  0  0  0  0  0  0  0  0
   -2.1275  -46.9879    9.7541 H   0  0  0  0  0  0  0  0  0  0  0  0
   -9.1107  -43.6393    4.5664 H   0  0  0  0  0  0  0  0  0  0  0  0
   -6.7630  -43.0072    4.0114 H   0  0  0  0  0  0  0  0  0  0  0  0
   -4.8938  -43.8184    5.4346 H   0  0  0  0  0  0  0  0  0  0  0  0
   -7.7084  -45.8934    7.9500 H   0  0  0  0  0  0  0  0  0  0  0  0
   -9.5757  -45.0202    6.5812 H   0  0  0  0  0  0  0  0  0  0  0  0
  1  2  2  0  0  0  0
  2  3  1  0  0  0  0
  2  4  1  0  0  0  0
  4 11  1  0  0  0  0
  4 22  2  0  0  0  0
  5  6  1  0  0  0  0
  5 10  1  0  0  0  0
  5 22  1  0  0  0  0
  6  7  2  0  0  0  0
  7  8  1  0  0  0  0
  8  9  2  0  0  0  0
  9 10  1  0  0  0  0
 10 11  2  0  0  0  0
 11 12  1  0  0  0  0
 12 13  1  0  0  0  0
 13 14  1  0  0  0  0
 14 15  1  0  0  0  0
 15 16  1  0  0  0  0
 16 17  2  0  0  0  0
 16 21  1  0  0  0  0
 17 18  1  0  0  0  0
 18 19  2  0  0  0  0
 18 26  1  0  0  0  0
 19 20  1  0  0  0  0
 20 21  2  0  0  0  0
 23 24  2  0  0  0  0
 23 28  1  0  0  0  0
 24 25  1  0  0  0  0
 25 26  2  0  0  0  0
 26 27  1  0  0  0  0
 27 28  2  0  0  0  0
  3 29  1  0  0  0  0
  5 30  1  0  0  0  0
  6 31  1  0  0  0  0
  7 32  1  0  0  0  0
  8 33  1  0  0  0  0
  9 34  1  0  0  0  0
 12 35  1  0  0  0  0
 12 36  1  0  0  0  0
 13 37  1  0  0  0  0
 13 38  1  0  0  0  0
 14 39  1  0  0  0  0
 14 40  1  0  0  0  0
 17 41  1  0  0  0  0
 19 42  1  0  0  0  0
 20 43  1  0  0  0  0
 21 44  1  0  0  0  0
 23 45  1  0  0  0  0
 24 46  1  0  0  0  0
 25 47  1  0  0  0  0
 27 48  1  0  0  0  0
 28 49  1  0  0  0  0
M  END
> <r_user_dG.exp>
-7.01900763427615

$$$$
38
  -OEChem-05192314073D
 Structure written by MMmdl.
 49 52  0     0  0  0  0  0  0999 V2000
    3.5933  -49.9991    7.5555 O   0  0  0  0  0  0  0  0  0  0  0  0
    3.0001  -49.0713    6.9544 C   0  0  0  0  0  0  0  0  0  0  0  0
    3.5624  -47.9815    6.7110 O   0  0  0  0  0  0  0  0  0  0  0  0
    1.5917  -49.2744    6.5446 C   0  0  0  0  0  0  0  0  0  0  0  0
   -0.3051  -50.5537    6.4875 C   0  0  0  0  0  0  0  0  0  0  0  0
   -1.2894  -51.5592    6.6189 C   0  0  0  0  0  0  0  0  0  0  0  0
   -2.5514  -51.3707    6.0210 C   0  0  0  0  0  0  0  0  0  0  0  0
   -2.8162  -50.1743    5.3187 C   0  0  0  0  0  0  0  0  0  0  0  0
   -1.8241  -49.1776    5.2080 C   0  0  0  0  0  0  0  0  0  0  0  0
   -0.5385  -49.3399    5.7780 C   0  0  0  0  0  0  0  0  0  0  0  0
    0.6726  -48.5474    5.8120 C   0  0  0  0  0  0  0  0  0  0  0  0
    0.9017  -47.2144    5.1306 C   0  0  0  0  0  0  0  0  0  0  0  0
    0.4907  -45.9835    5.9602 C   0  0  0  0  0  0  0  0  0  0  0  0
   -1.0329  -45.8412    6.1442 C   0  0  0  0  0  0  0  0  0  0  0  0
   -1.4399  -46.5418    7.3177 O   0  0  0  0  0  0  0  0  0  0  0  0
   -2.6980  -46.2729    7.8035 C   0  0  0  0  0  0  0  0  0  0  0  0
   -3.7548  -45.7256    7.0283 C   0  0  0  0  0  0  0  0  0  0  0  0
   -5.0251  -45.4767    7.6009 C   0  0  0  0  0  0  0  0  0  0  0  0
   -5.2110  -45.7620    8.9755 C   0  0  0  0  0  0  0  0  0  0  0  0
   -4.1688  -46.3092    9.7409 C   0  0  0  0  0  0  0  0  0  0  0  0
   -2.9221  -46.5642    9.1578 C   0  0  0  0  0  0  0  0  0  0  0  0
    1.0006  -50.4682    6.9462 N   0  0  0  0  0  0  0  0  0  0  0  0
   -8.2961  -43.9825    5.1869 C   0  0  0  0  0  0  0  0  0  0  0  0
   -6.9685  -43.6324    4.8677 C   0  0  0  0  0  0  0  0  0  0  0  0
   -5.9075  -44.1038    5.6742 C   0  0  0  0  0  0  0  0  0  0  0  0
   -6.1471  -44.9439    6.7916 C   0  0  0  0  0  0  0  0  0  0  0  0
   -7.4945  -45.2646    7.0984 C   0  0  0  0  0  0  0  0  0  0  0  0
   -8.5569  -44.7797    6.3153 C   0  0  0  0  0  0  0  0  0  0  0  0
    4.4512  -48.0015    7.0459 H   0  0  0  0  0  0  0  0  0  0  0  0
   -1.0767  -52.4623    7.1716 H   0  0  0  0  0  0  0  0  0  0  0  0
   -3.3103  -52.1352    6.0992 H   0  0  0  0  0  0  0  0  0  0  0  0
   -3.0886  -50.4639    4.2931 H   0  0  0  0  0  0  0  0  0  0  0  0
   -3.6817  -49.7051    5.8094 H   0  0  0  0  0  0  0  0  0  0  0  0
   -2.0514  -48.2666    4.6743 H   0  0  0  0  0  0  0  0  0  0  0  0
    1.9737  -47.1284    4.8996 H   0  0  0  0  0  0  0  0  0  0  0  0
    0.3231  -47.2048    4.1951 H   0  0  0  0  0  0  0  0  0  0  0  0
    0.9546  -46.0641    6.9544 H   0  0  0  0  0  0  0  0  0  0  0  0
    0.8650  -45.0821    5.4529 H   0  0  0  0  0  0  0  0  0  0  0  0
   -1.2918  -44.7768    6.2448 H   0  0  0  0  0  0  0  0  0  0  0  0
   -1.5484  -46.2628    5.2687 H   0  0  0  0  0  0  0  0  0  0  0  0
   -3.5866  -45.4959    5.9865 H   0  0  0  0  0  0  0  0  0  0  0  0
   -6.1642  -45.5566    9.4398 H   0  0  0  0  0  0  0  0  0  0  0  0
   -4.3299  -46.5345   10.7848 H   0  0  0  0  0  0  0  0  0  0  0  0
   -2.1275  -46.9879    9.7541 H   0  0  0  0  0  0  0  0  0  0  0  0
   -9.1107  -43.6393    4.5664 H   0  0  0  0  0  0  0  0  0  0  0  0
   -6.7630  -43.0072    4.0114 H   0  0  0  0  0  0  0  0  0  0  0  0
   -4.8938  -43.8184    5.4346 H   0  0  0  0  0  0  0  0  0  0  0  0
   -7.7084  -45.8934    7.9500 H   0  0  0  0  0  0  0  0  0  0  0  0
   -9.5757  -45.0202    6.5812 H   0  0  0  0  0  0  0  0  0  0  0  0
  1  2  2  0  0  0  0
  2  3  1  0  0  0  0
  2  4  1  0  0  0  0
  4 11  2  0  0  0  0
  4 22  1  0  0  0  0
  5  6  1  0  0  0  0
  5 10  1  0  0  0  0
  5 22  2  0  0  0  0
  6  7  2  0  0  0  0
  7  8  1  0  0  0  0
  8  9  1  0  0  0  0
  9 10  2  0  0  0  0
 10 11  1  0  0  0  0
 11 12  1  0  0  0  0
 12 13  1  0  0  0  0
 13 14  1  0  0  0  0
 14 15  1  0  0  0  0
 15 16  1  0  0  0  0
 16 17  2  0  0  0  0
 16 21  1  0  0  0  0
 17 18  1  0  0  0  0
 18 19  2  0  0  0  0
 18 26  1  0  0  0  0
 19 20  1  0  0  0  0
 20 21  2  0  0  0  0
 23 24  2  0  0  0  0
 23 28  1  0  0  0  0
 24 25  1  0  0  0  0
 25 26  2  0  0  0  0
 26 27  1  0  0  0  0
 27 28  2  0  0  0  0
  3 29  1  0  0  0  0
  6 30  1  0  0  0  0
  7 31  1  0  0  0  0
  8 32  1  0  0  0  0
  8 33  1  0  0  0  0
  9 34  1  0  0  0  0
 12 35  1  0  0  0  0
 12 36  1  0  0  0  0
 13 37  1  0  0  0  0
 13 38  1  0  0  0  0
 14 39  1  0  0  0  0
 14 40  1  0  0  0  0
 17 41  1  0  0  0  0
 19 42  1  0  0  0  0
 20 43  1  0  0  0  0
 21 44  1  0  0  0  0
 23 45  1  0  0  0  0
 24 46  1  0  0  0  0
 25 47  1  0  0  0  0
 27 48  1  0  0  0  0
 28 49  1  0  0  0  0
M  END
> <r_user_dG.exp>
-7.01900763427615

$$$$
38
  -OEChem-05192314073D
 Structure written by MMmdl.
 49 52  0     0  0  0  0  0  0999 V2000
    3.5933  -49.9991    7.5555 O   0  0  0  0  0  0  0  0  0  0  0  0
    3.0001  -49.0713    6.9544 C   0  0  0  0  0  0  0  0  0  0  0  0
    3.5624  -47.9815    6.7110 O   0  0  0  0  0  0  0  0  0  0  0  0
    1.5917  -49.2744    6.5446 C   0  0  0  0  0  0  0  0  0  0  0  0
   -0.3051  -50.5537    6.4875 C   0  0  0  0  0  0  0  0  0  0  0  0
   -1.2894  -51.5592    6.6189 C   0  0  0  0  0  0  0  0  0  0  0  0
   -2.5514  -51.3707    6.0210 C   0  0  0  0  0  0  0  0  0  0  0  0
   -2.8162  -50.1743    5.3187 C   0  0  0  0  0  0  0  0  0  0  0  0
   -1.8241  -49.1776    5.2080 C   0  0  0  0  0  0  0  0  0  0  0  0
   -0.5385  -49.3399    5.7780 C   0  0  0  0  0  0  0  0  0  0  0  0
    0.6726  -48.5474    5.8120 C   0  0  0  0  0  0  0  0  0  0  0  0
    0.9017  -47.2144    5.1306 C   0  0  0  0  0  0  0  0  0  0  0  0
    0.4907  -45.9835    5.9602 C   0  0  0  0  0  0  0  0  0  0  0  0
   -1.0329  -45.8412    6.1442 C   0  0  0  0  0  0  0  0  0  0  0  0
   -1.4399  -46.5418    7.3177 O   0  0  0  0  0  0  0  0  0  0  0  0
   -2.6980  -46.2729    7.8035 C   0  0  0  0  0  0  0  0  0  0  0  0
   -3.7548  -45.7256    7.0283 C   0  0  0  0  0  0  0  0  0  0  0  0
   -5.0251  -45.4767    7.6009 C   0  0  0  0  0  0  0  0  0  0  0  0
   -5.2110  -45.7620    8.9755 C   0  0  0  0  0  0  0  0  0  0  0  0
   -4.1688  -46.3092    9.7409 C   0  0  0  0  0  0  0  0  0  0  0  0
   -2.9221  -46.5642    9.1578 C   0  0  0  0  0  0  0  0  0  0  0  0
    1.0006  -50.4682    6.9462 N   0  0  0  0  0  0  0  0  0  0  0  0
   -8.2961  -43.9825    5.1869 C   0  0  0  0  0  0  0  0  0  0  0  0
   -6.9685  -43.6324    4.8677 C   0  0  0  0  0  0  0  0  0  0  0  0
   -5.9075  -44.1038    5.6742 C   0  0  0  0  0  0  0  0  0  0  0  0
   -6.1471  -44.9439    6.7916 C   0  0  0  0  0  0  0  0  0  0  0  0
   -7.4945  -45.2646    7.0984 C   0  0  0  0  0  0  0  0  0  0  0  0
   -8.5569  -44.7797    6.3153 C   0  0  0  0  0  0  0  0  0  0  0  0
    4.4512  -48.0015    7.0459 H   0  0  0  0  0  0  0  0  0  0  0  0
   -1.0767  -52.4623    7.1716 H   0  0  0  0  0  0  0  0  0  0  0  0
   -2.6954  -52.1977    5.3101 H   0  0  0  0  0  0  0  0  0  0  0  0
   -3.2999  -51.4428    6.8239 H   0  0  0  0  0  0  0  0  0  0  0  0
   -3.7838  -50.0216    4.8638 H   0  0  0  0  0  0  0  0  0  0  0  0
   -2.0514  -48.2666    4.6743 H   0  0  0  0  0  0  0  0  0  0  0  0
    1.9737  -47.1284    4.8996 H   0  0  0  0  0  0  0  0  0  0  0  0
    0.3231  -47.2048    4.1951 H   0  0  0  0  0  0  0  0  0  0  0  0
    0.9546  -46.0641    6.9544 H   0  0  0  0  0  0  0  0  0  0  0  0
    0.8650  -45.0821    5.4529 H   0  0  0  0  0  0  0  0  0  0  0  0
   -1.2918  -44.7768    6.2448 H   0  0  0  0  0  0  0  0  0  0  0  0
   -1.5484  -46.2628    5.2687 H   0  0  0  0  0  0  0  0  0  0  0  0
   -3.5866  -45.4959    5.9865 H   0  0  0  0  0  0  0  0  0  0  0  0
   -6.1642  -45.5566    9.4398 H   0  0  0  0  0  0  0  0  0  0  0  0
   -4.3299  -46.5345   10.7848 H   0  0  0  0  0  0  0  0  0  0  0  0
   -2.1275  -46.9879    9.7541 H   0  0  0  0  0  0  0  0  0  0  0  0
   -9.1107  -43.6393    4.5664 H   0  0  0  0  0  0  0  0  0  0  0  0
   -6.7630  -43.0072    4.0114 H   0  0  0  0  0  0  0  0  0  0  0  0
   -4.8938  -43.8184    5.4346 H   0  0  0  0  0  0  0  0  0  0  0  0
   -7.7084  -45.8934    7.9500 H   0  0  0  0  0  0  0  0  0  0  0  0
   -9.5757  -45.0202    6.5812 H   0  0  0  0  0  0  0  0  0  0  0  0
  1  2  2  0  0  0  0
  2  3  1  0  0  0  0
  2  4  1  0  0  0  0
  4 11  1  0  0  0  0
  4 22  2  0  0  0  0
  5  6  2  0  0  0  0
  5 10  1  0  0  0  0
  5 22  1  0  0  0  0
  6  7  1  0  0  0  0
  7  8  1  0  0  0  0
  8  9  2  0  0  0  0
  9 10  1  0  0  0  0
 10 11  2  0  0  0  0
 11 12  1  0  0  0  0
 12 13  1  0  0  0  0
 13 14  1  0  0  0  0
 14 15  1  0  0  0  0
 15 16  1  0  0  0  0
 16 17  2  0  0  0  0
 16 21  1  0  0  0  0
 17 18  1  0  0  0  0
 18 19  2  0  0  0  0
 18 26  1  0  0  0  0
 19 20  1  0  0  0  0
 20 21  2  0  0  0  0
 23 24  2  0  0  0  0
 23 28  1  0  0  0  0
 24 25  1  0  0  0  0
 25 26  2  0  0  0  0
 26 27  1  0  0  0  0
 27 28  2  0  0  0  0
  3 29  1  0  0  0  0
  6 30  1  0  0  0  0
  7 31  1  0  0  0  0
  7 32  1  0  0  0  0
  8 33  1  0  0  0  0
  9 34  1  0  0  0  0
 12 35  1  0  0  0  0
 12 36  1  0  0  0  0
 13 37  1  0  0  0  0
 13 38  1  0  0  0  0
 14 39  1  0  0  0  0
 14 40  1  0  0  0  0
 17 41  1  0  0  0  0
 19 42  1  0  0  0  0
 20 43  1  0  0  0  0
 21 44  1  0  0  0  0
 23 45  1  0  0  0  0
 24 46  1  0  0  0  0
 25 47  1  0  0  0  0
 27 48  1  0  0  0  0
 28 49  1  0  0  0  0
M  END
> <r_user_dG.exp>
-7.01900763427615

$$$$
38
  -OEChem-05192314073D
 Structure written by MMmdl.
 49 52  0     0  0  0  0  0  0999 V2000
    3.5933  -49.9991    7.5555 O   0  0  0  0  0  0  0  0  0  0  0  0
    3.0001  -49.0713    6.9544 C   0  0  0  0  0  0  0  0  0  0  0  0
    3.5624  -47.9815    6.7110 O   0  0  0  0  0  0  0  0  0  0  0  0
    1.5917  -49.2744    6.5446 C   0  0  0  0  0  0  0  0  0  0  0  0
   -0.3051  -50.5537    6.4875 C   0  0  0  0  0  0  0  0  0  0  0  0
   -1.2894  -51.5592    6.6189 C   0  0  0  0  0  0  0  0  0  0  0  0
   -2.5514  -51.3707    6.0210 C   0  0  0  0  0  0  0  0  0  0  0  0
   -2.8162  -50.1743    5.3187 C   0  0  0  0  0  0  0  0  0  0  0  0
   -1.8241  -49.1776    5.2080 C   0  0  0  0  0  0  0  0  0  0  0  0
   -0.5385  -49.3399    5.7780 C   0  0  0  0  0  0  0  0  0  0  0  0
    0.6726  -48.5474    5.8120 C   0  0  0  0  0  0  0  0  0  0  0  0
    0.9017  -47.2144    5.1306 C   0  0  0  0  0  0  0  0  0  0  0  0
    0.4907  -45.9835    5.9602 C   0  0  0  0  0  0  0  0  0  0  0  0
   -1.0329  -45.8412    6.1442 C   0  0  0  0  0  0  0  0  0  0  0  0
   -1.4399  -46.5418    7.3177 O   0  0  0  0  0  0  0  0  0  0  0  0
   -2.6980  -46.2729    7.8035 C   0  0  0  0  0  0  0  0  0  0  0  0
   -3.7548  -45.7256    7.0283 C   0  0  0  0  0  0  0  0  0  0  0  0
   -5.0251  -45.4767    7.6009 C   0  0  0  0  0  0  0  0  0  0  0  0
   -5.2110  -45.7620    8.9755 C   0  0  0  0  0  0  0  0  0  0  0  0
   -4.1688  -46.3092    9.7409 C   0  0  0  0  0  0  0  0  0  0  0  0
   -2.9221  -46.5642    9.1578 C   0  0  0  0  0  0  0  0  0  0  0  0
    1.0006  -50.4682    6.9462 N   0  0  0  0  0  0  0  0  0  0  0  0
   -8.2961  -43.9825    5.1869 C   0  0  0  0  0  0  0  0  0  0  0  0
   -6.9685  -43.6324    4.8677 C   0  0  0  0  0  0  0  0  0  0  0  0
   -5.9075  -44.1038    5.6742 C   0  0  0  0  0  0  0  0  0  0  0  0
   -6.1471  -44.9439    6.7916 C   0  0  0  0  0  0  0  0  0  0  0  0
   -7.4945  -45.2646    7.0984 C   0  0  0  0  0  0  0  0  0  0  0  0
   -8.5569  -44.7797    6.3153 C   0  0  0  0  0  0  0  0  0  0  0  0
    4.4512  -48.0015    7.0459 H   0  0  0  0  0  0  0  0  0  0  0  0
   -0.8662  -52.4804    6.1918 H   0  0  0  0  0  0  0  0  0  0  0  0
   -1.4624  -51.7002    7.6960 H   0  0  0  0  0  0  0  0  0  0  0  0
   -3.3103  -52.1352    6.0992 H   0  0  0  0  0  0  0  0  0  0  0  0
   -3.7838  -50.0216    4.8638 H   0  0  0  0  0  0  0  0  0  0  0  0
   -2.0514  -48.2666    4.6743 H   0  0  0  0  0  0  0  0  0  0  0  0
    1.9737  -47.1284    4.8996 H   0  0  0  0  0  0  0  0  0  0  0  0
    0.3231  -47.2048    4.1951 H   0  0  0  0  0  0  0  0  0  0  0  0
    0.9546  -46.0641    6.9544 H   0  0  0  0  0  0  0  0  0  0  0  0
    0.8650  -45.0821    5.4529 H   0  0  0  0  0  0  0  0  0  0  0  0
   -1.2918  -44.7768    6.2448 H   0  0  0  0  0  0  0  0  0  0  0  0
   -1.5484  -46.2628    5.2687 H   0  0  0  0  0  0  0  0  0  0  0  0
   -3.5866  -45.4959    5.9865 H   0  0  0  0  0  0  0  0  0  0  0  0
   -6.1642  -45.5566    9.4398 H   0  0  0  0  0  0  0  0  0  0  0  0
   -4.3299  -46.5345   10.7848 H   0  0  0  0  0  0  0  0  0  0  0  0
   -2.1275  -46.9879    9.7541 H   0  0  0  0  0  0  0  0  0  0  0  0
   -9.1107  -43.6393    4.5664 H   0  0  0  0  0  0  0  0  0  0  0  0
   -6.7630  -43.0072    4.0114 H   0  0  0  0  0  0  0  0  0  0  0  0
   -4.8938  -43.8184    5.4346 H   0  0  0  0  0  0  0  0  0  0  0  0
   -7.7084  -45.8934    7.9500 H   0  0  0  0  0  0  0  0  0  0  0  0
   -9.5757  -45.0202    6.5812 H   0  0  0  0  0  0  0  0  0  0  0  0
  1  2  2  0  0  0  0
  2  3  1  0  0  0  0
  2  4  1  0  0  0  0
  4 11  2  0  0  0  0
  4 22  1  0  0  0  0
  5  6  1  0  0  0  0
  5 10  1  0  0  0  0
  5 22  2  0  0  0  0
  6  7  1  0  0  0  0
  7  8  2  0  0  0  0
  8  9  1  0  0  0  0
  9 10  2  0  0  0  0
 10 11  1  0  0  0  0
 11 12  1  0  0  0  0
 12 13  1  0  0  0  0
 13 14  1  0  0  0  0
 14 15  1  0  0  0  0
 15 16  1  0  0  0  0
 16 17  2  0  0  0  0
 16 21  1  0  0  0  0
 17 18  1  0  0  0  0
 18 19  2  0  0  0  0
 18 26  1  0  0  0  0
 19 20  1  0  0  0  0
 20 21  2  0  0  0  0
 23 24  2  0  0  0  0
 23 28  1  0  0  0  0
 24 25  1  0  0  0  0
 25 26  2  0  0  0  0
 26 27  1  0  0  0  0
 27 28  2  0  0  0  0
  3 29  1  0  0  0  0
  6 30  1  0  0  0  0
  6 31  1  0  0  0  0
  7 32  1  0  0  0  0
  8 33  1  0  0  0  0
  9 34  1  0  0  0  0
 12 35  1  0  0  0  0
 12 36  1  0  0  0  0
 13 37  1  0  0  0  0
 13 38  1  0  0  0  0
 14 39  1  0  0  0  0
 14 40  1  0  0  0  0
 17 41  1  0  0  0  0
 19 42  1  0  0  0  0
 20 43  1  0  0  0  0
 21 44  1  0  0  0  0
 23 45  1  0  0  0  0
 24 46  1  0  0  0  0
 25 47  1  0  0  0  0
 27 48  1  0  0  0  0
 28 49  1  0  0  0  0
M  END
> <r_user_dG.exp>
-7.01900763427615

$$$$
38
  -OEChem-05192314073D
 Structure written by MMmdl.
 49 52  0     0  0  0  0  0  0999 V2000
    3.5933  -49.9991    7.5555 O   0  0  0  0  0  0  0  0  0  0  0  0
    3.0001  -49.0713    6.9544 C   0  0  0  0  0  0  0  0  0  0  0  0
    3.5624  -47.9815    6.7110 O   0  0  0  0  0  0  0  0  0  0  0  0
    1.5917  -49.2744    6.5446 C   0  0  0  0  0  0  0  0  0  0  0  0
   -0.3051  -50.5537    6.4875 C   0  0  0  0  0  0  0  0  0  0  0  0
   -1.2894  -51.5592    6.6189 C   0  0  0  0  0  0  0  0  0  0  0  0
   -2.5514  -51.3707    6.0210 C   0  0  0  0  0  0  0  0  0  0  0  0
   -2.8162  -50.1743    5.3187 C   0  0  0  0  0  0  0  0  0  0  0  0
   -1.8241  -49.1776    5.2080 C   0  0  0  0  0  0  0  0  0  0  0  0
   -0.5385  -49.3399    5.7780 C   0  0  0  0  0  0  0  0  0  0  0  0
    0.6726  -48.5474    5.8120 C   0  0  0  0  0  0  0  0  0  0  0  0
    0.9017  -47.2144    5.1306 C   0  0  0  0  0  0  0  0  0  0  0  0
    0.4907  -45.9835    5.9602 C   0  0  0  0  0  0  0  0  0  0  0  0
   -1.0329  -45.8412    6.1442 C   0  0  0  0  0  0  0  0  0  0  0  0
   -1.4399  -46.5418    7.3177 O   0  0  0  0  0  0  0  0  0  0  0  0
   -2.6980  -46.2729    7.8035 C   0  0  0  0  0  0  0  0  0  0  0  0
   -3.7548  -45.7256    7.0283 C   0  0  0  0  0  0  0  0  0  0  0  0
   -5.0251  -45.4767    7.6009 C   0  0  0  0  0  0  0  0  0  0  0  0
   -5.2110  -45.7620    8.9755 C   0  0  0  0  0  0  0  0  0  0  0  0
   -4.1688  -46.3092    9.7409 C   0  0  0  0  0  0  0  0  0  0  0  0
   -2.9221  -46.5642    9.1578 C   0  0  0  0  0  0  0  0  0  0  0  0
    1.0006  -50.4682    6.9462 N   0  0  0  0  0  0  0  0  0  0  0  0
   -8.2961  -43.9825    5.1869 C   0  0  0  0  0  0  0  0  0  0  0  0
   -6.9685  -43.6324    4.8677 C   0  0  0  0  0  0  0  0  0  0  0  0
   -5.9075  -44.1038    5.6742 C   0  0  0  0  0  0  0  0  0  0  0  0
   -6.1471  -44.9439    6.7916 C   0  0  0  0  0  0  0  0  0  0  0  0
   -7.4945  -45.2646    7.0984 C   0  0  0  0  0  0  0  0  0  0  0  0
   -8.5569  -44.7797    6.3153 C   0  0  0  0  0  0  0  0  0  0  0  0
    4.4512  -48.0015    7.0459 H   0  0  0  0  0  0  0  0  0  0  0  0
   -1.0767  -52.4623    7.1716 H   0  0  0  0  0  0  0  0  0  0  0  0
   -3.3103  -52.1352    6.0992 H   0  0  0  0  0  0  0  0  0  0  0  0
   -3.7838  -50.0216    4.8638 H   0  0  0  0  0  0  0  0  0  0  0  0
   -1.6668  -49.0162    4.1313 H   0  0  0  0  0  0  0  0  0  0  0  0
   -2.2487  -48.2676    5.6570 H   0  0  0  0  0  0  0  0  0  0  0  0
    1.9737  -47.1284    4.8996 H   0  0  0  0  0  0  0  0  0  0  0  0
    0.3231  -47.2048    4.1951 H   0  0  0  0  0  0  0  0  0  0  0  0
    0.9546  -46.0641    6.9544 H   0  0  0  0  0  0  0  0  0  0  0  0
    0.8650  -45.0821    5.4529 H   0  0  0  0  0  0  0  0  0  0  0  0
   -1.2918  -44.7768    6.2448 H   0  0  0  0  0  0  0  0  0  0  0  0
   -1.5484  -46.2628    5.2687 H   0  0  0  0  0  0  0  0  0  0  0  0
   -3.5866  -45.4959    5.9865 H   0  0  0  0  0  0  0  0  0  0  0  0
   -6.1642  -45.5566    9.4398 H   0  0  0  0  0  0  0  0  0  0  0  0
   -4.3299  -46.5345   10.7848 H   0  0  0  0  0  0  0  0  0  0  0  0
   -2.1275  -46.9879    9.7541 H   0  0  0  0  0  0  0  0  0  0  0  0
   -9.1107  -43.6393    4.5664 H   0  0  0  0  0  0  0  0  0  0  0  0
   -6.7630  -43.0072    4.0114 H   0  0  0  0  0  0  0  0  0  0  0  0
   -4.8938  -43.8184    5.4346 H   0  0  0  0  0  0  0  0  0  0  0  0
   -7.7084  -45.8934    7.9500 H   0  0  0  0  0  0  0  0  0  0  0  0
   -9.5757  -45.0202    6.5812 H   0  0  0  0  0  0  0  0  0  0  0  0
  1  2  2  0  0  0  0
  2  3  1  0  0  0  0
  2  4  1  0  0  0  0
  4 11  1  0  0  0  0
  4 22  2  0  0  0  0
  5  6  2  0  0  0  0
  5 10  1  0  0  0  0
  5 22  1  0  0  0  0
  6  7  1  0  0  0  0
  7  8  2  0  0  0  0
  8  9  1  0  0  0  0
  9 10  1  0  0  0  0
 10 11  2  0  0  0  0
 11 12  1  0  0  0  0
 12 13  1  0  0  0  0
 13 14  1  0  0  0  0
 14 15  1  0  0  0  0
 15 16  1  0  0  0  0
 16 17  2  0  0  0  0
 16 21  1  0  0  0  0
 17 18  1  0  0  0  0
 18 19  2  0  0  0  0
 18 26  1  0  0  0  0
 19 20  1  0  0  0  0
 20 21  2  0  0  0  0
 23 24  2  0  0  0  0
 23 28  1  0  0  0  0
 24 25  1  0  0  0  0
 25 26  2  0  0  0  0
 26 27  1  0  0  0  0
 27 28  2  0  0  0  0
  3 29  1  0  0  0  0
  6 30  1  0  0  0  0
  7 31  1  0  0  0  0
  8 32  1  0  0  0  0
  9 33  1  0  0  0  0
  9 34  1  0  0  0  0
 12 35  1  0  0  0  0
 12 36  1  0  0  0  0
 13 37  1  0  0  0  0
 13 38  1  0  0  0  0
 14 39  1  0  0  0  0
 14 40  1  0  0  0  0
 17 41  1  0  0  0  0
 19 42  1  0  0  0  0
 20 43  1  0  0  0  0
 21 44  1  0  0  0  0
 23 45  1  0  0  0  0
 24 46  1  0  0  0  0
 25 47  1  0  0  0  0
 27 48  1  0  0  0  0
 28 49  1  0  0  0  0
M  END
> <r_user_dG.exp>
-7.01900763427615

$$$$
38
  -OEChem-05192314073D
 Structure written by MMmdl.
 49 52  0     0  0  0  0  0  0999 V2000
    3.5933  -49.9991    7.5555 O   0  0  0  0  0  0  0  0  0  0  0  0
    3.0001  -49.0713    6.9544 C   0  0  0  0  0  0  0  0  0  0  0  0
    3.5624  -47.9815    6.7110 O   0  0  0  0  0  0  0  0  0  0  0  0
    1.5917  -49.2744    6.5446 C   0  0  0  0  0  0  0  0  0  0  0  0
   -0.3051  -50.5537    6.4875 C   0  0  0  0  0  0  0  0  0  0  0  0
   -1.2894  -51.5592    6.6189 C   0  0  0  0  0  0  0  0  0  0  0  0
   -2.5514  -51.3707    6.0210 C   0  0  0  0  0  0  0  0  0  0  0  0
   -2.8162  -50.1743    5.3187 C   0  0  0  0  0  0  0  0  0  0  0  0
   -1.8241  -49.1776    5.2080 C   0  0  0  0  0  0  0  0  0  0  0  0
   -0.5385  -49.3399    5.7780 C   0  0  0  0  0  0  0  0  0  0  0  0
    0.6726  -48.5474    5.8120 C   0  0  0  0  0  0  0  0  0  0  0  0
    0.9017  -47.2144    5.1306 C   0  0  0  0  0  0  0  0  0  0  0  0
    0.4907  -45.9835    5.9602 C   0  0  0  0  0  0  0  0  0  0  0  0
   -1.0329  -45.8412    6.1442 C   0  0  0  0  0  0  0  0  0  0  0  0
   -1.4399  -46.5418    7.3177 O   0  0  0  0  0  0  0  0  0  0  0  0
   -2.6980  -46.2729    7.8035 C   0  0  0  0  0  0  0  0  0  0  0  0
   -3.7548  -45.7256    7.0283 C   0  0  0  0  0  0  0  0  0  0  0  0
   -5.0251  -45.4767    7.6009 C   0  0  0  0  0  0  0  0  0  0  0  0
   -5.2110  -45.7620    8.9755 C   0  0  0  0  0  0  0  0  0  0  0  0
   -4.1688  -46.3092    9.7409 C   0  0  0  0  0  0  0  0  0  0  0  0
   -2.9221  -46.5642    9.1578 C   0  0  0  0  0  0  0  0  0  0  0  0
    1.0006  -50.4682    6.9462 N   0  0  0  0  0  0  0  0  0  0  0  0
   -8.2961  -43.9825    5.1869 C   0  0  0  0  0  0  0  0  0  0  0  0
   -6.9685  -43.6324    4.8677 C   0  0  0  0  0  0  0  0  0  0  0  0
   -5.9075  -44.1038    5.6742 C   0  0  0  0  0  0  0  0  0  0  0  0
   -6.1471  -44.9439    6.7916 C   0  0  0  0  0  0  0  0  0  0  0  0
   -7.4945  -45.2646    7.0984 C   0  0  0  0  0  0  0  0  0  0  0  0
   -8.5569  -44.7797    6.3153 C   0  0  0  0  0  0  0  0  0  0  0  0
    3.0086  -50.7422    7.6475 H   0  0  0  0  0  0  0  0  0  0  0  0
    2.9588  -47.4086    6.2527 H   0  0  0  0  0  0  0  0  0  0  0  0
   -1.0767  -52.4623    7.1716 H   0  0  0  0  0  0  0  0  0  0  0  0
   -3.3103  -52.1352    6.0992 H   0  0  0  0  0  0  0  0  0  0  0  0
   -3.7838  -50.0216    4.8638 H   0  0  0  0  0  0  0  0  0  0  0  0
   -2.0514  -48.2666    4.6743 H   0  0  0  0  0  0  0  0  0  0  0  0
    1.9737  -47.1284    4.8996 H   0  0  0  0  0  0  0  0  0  0  0  0
    0.3231  -47.2048    4.1951 H   0  0  0  0  0  0  0  0  0  0  0  0
    0.9546  -46.0641    6.9544 H   0  0  0  0  0  0  0  0  0  0  0  0
    0.8650  -45.0821    5.4529 H   0  0  0  0  0  0  0  0  0  0  0  0
   -1.2918  -44.7768    6.2448 H   0  0  0  0  0  0  0  0  0  0  0  0
   -1.5484  -46.2628    5.2687 H   0  0  0  0  0  0  0  0  0  0  0  0
   -3.5866  -45.4959    5.9865 H   0  0  0  0  0  0  0  0  0  0  0  0
   -6.1642  -45.5566    9.4398 H   0  0  0  0  0  0  0  0  0  0  0  0
   -4.3299  -46.5345   10.7848 H   0  0  0  0  0  0  0  0  0  0  0  0
   -2.1275  -46.9879    9.7541 H   0  0  0  0  0  0  0  0  0  0  0  0
   -9.1107  -43.6393    4.5664 H   0  0  0  0  0  0  0  0  0  0  0  0
   -6.7630  -43.0072    4.0114 H   0  0  0  0  0  0  0  0  0  0  0  0
   -4.8938  -43.8184    5.4346 H   0  0  0  0  0  0  0  0  0  0  0  0
   -7.7084  -45.8934    7.9500 H   0  0  0  0  0  0  0  0  0  0  0  0
   -9.5757  -45.0202    6.5812 H   0  0  0  0  0  0  0  0  0  0  0  0
  1  2  1  0  0  0  0
  2  3  1  0  0  0  0
  2  4  2  0  0  0  0
  4 11  1  0  0  0  0
  4 22  1  0  0  0  0
  5  6  1  0  0  0  0
  5 10  1  0  0  0  0
  5 22  2  0  0  0  0
  6  7  2  0  0  0  0
  7  8  1  0  0  0  0
  8  9  2  0  0  0  0
  9 10  1  0  0  0  0
 10 11  2  0  0  0  0
 11 12  1  0  0  0  0
 12 13  1  0  0  0  0
 13 14  1  0  0  0  0
 14 15  1  0  0  0  0
 15 16  1  0  0  0  0
 16 17  2  0  0  0  0
 16 21  1  0  0  0  0
 17 18  1  0  0  0  0
 18 19  2  0  0  0  0
 18 26  1  0  0  0  0
 19 20  1  0  0  0  0
 20 21  2  0  0  0  0
 23 24  2  0  0  0  0
 23 28  1  0  0  0  0
 24 25  1  0  0  0  0
 25 26  2  0  0  0  0
 26 27  1  0  0  0  0
 27 28  2  0  0  0  0
  1 29  1  0  0  0  0
  3 30  1  0  0  0  0
  6 31  1  0  0  0  0
  7 32  1  0  0  0  0
  8 33  1  0  0  0  0
  9 34  1  0  0  0  0
 12 35  1  0  0  0  0
 12 36  1  0  0  0  0
 13 37  1  0  0  0  0
 13 38  1  0  0  0  0
 14 39  1  0  0  0  0
 14 40  1  0  0  0  0
 17 41  1  0  0  0  0
 19 42  1  0  0  0  0
 20 43  1  0  0  0  0
 21 44  1  0  0  0  0
 23 45  1  0  0  0  0
 24 46  1  0  0  0  0
 25 47  1  0  0  0  0
 27 48  1  0  0  0  0
 28 49  1  0  0  0  0
M  END
> <r_user_dG.exp>
-7.01900763427615

$$$$
