43
  -OEChem-05192314073D
 Structure written by MMmdl.
 45 48  0     0  0  0  0  0  0999 V2000
    3.5643  -47.8843    6.3334 O   0  0  0  0  0  0  0  0  0  0  0  0
    2.9990  -48.9049    6.7868 C   0  0  0  0  0  0  0  0  0  0  0  0
    3.5887  -49.7095    7.5467 O   0  0  0  0  0  0  0  0  0  0  0  0
    1.5874  -49.1583    6.4235 C   0  0  0  0  0  0  0  0  0  0  0  0
   -0.3136  -50.4258    6.4859 C   0  0  0  0  0  0  0  0  0  0  0  0
   -1.3036  -51.4031    6.6994 C   0  0  0  0  0  0  0  0  0  0  0  0
   -2.5845  -51.2164    6.1482 C   0  0  0  0  0  0  0  0  0  0  0  0
   -2.8632  -50.0626    5.3949 C   0  0  0  0  0  0  0  0  0  0  0  0
   -1.8627  -49.0917    5.1852 C   0  0  0  0  0  0  0  0  0  0  0  0
   -0.5602  -49.2479    5.7208 C   0  0  0  0  0  0  0  0  0  0  0  0
    0.6473  -48.4594    5.6954 C   0  0  0  0  0  0  0  0  0  0  0  0
    0.8265  -47.1229    5.0263 C   0  0  0  0  0  0  0  0  0  0  0  0
    0.8821  -45.9477    6.0225 C   0  0  0  0  0  0  0  0  0  0  0  0
   -0.3512  -45.8393    6.9293 C   0  0  0  0  0  0  0  0  0  0  0  0
   -1.4585  -45.3868    6.1598 O   0  0  0  0  0  0  0  0  0  0  0  0
   -2.6734  -45.2518    6.7942 C   0  0  0  0  0  0  0  0  0  0  0  0
   -4.9576  -44.3709    6.6682 C   0  0  0  0  0  0  0  0  0  0  0  0
   -3.6845  -44.5617    6.0974 C   0  0  0  0  0  0  0  0  0  0  0  0
   -2.9615  -45.7676    8.0827 C   0  0  0  0  0  0  0  0  0  0  0  0
   -4.2421  -45.6033    8.6496 C   0  0  0  0  0  0  0  0  0  0  0  0
   -5.2428  -44.8900    7.9458 C   0  0  0  0  0  0  0  0  0  0  0  0
   -6.5177  -44.7121    8.5223 C   0  0  0  0  0  0  0  0  0  0  0  0
   -6.8021  -45.2571    9.7910 C   0  0  0  0  0  0  0  0  0  0  0  0
   -5.8102  -45.9817   10.4853 C   0  0  0  0  0  0  0  0  0  0  0  0
   -4.5321  -46.1533    9.9158 C   0  0  0  0  0  0  0  0  0  0  0  0
    1.0036  -50.3231    6.8929 N   0  0  0  0  0  0  0  0  0  0  0  0
    4.4782  -49.4111    7.6957 H   0  0  0  0  0  0  0  0  0  0  0  0
   -1.0825  -52.2866    7.2799 H   0  0  0  0  0  0  0  0  0  0  0  0
   -3.3532  -51.9590    6.3037 H   0  0  0  0  0  0  0  0  0  0  0  0
   -3.8479  -49.9194    4.9751 H   0  0  0  0  0  0  0  0  0  0  0  0
   -2.0937  -48.2109    4.6045 H   0  0  0  0  0  0  0  0  0  0  0  0
    1.7661  -47.1413    4.4546 H   0  0  0  0  0  0  0  0  0  0  0  0
   -0.0173  -46.9597    4.3398 H   0  0  0  0  0  0  0  0  0  0  0  0
    1.7696  -46.0760    6.6595 H   0  0  0  0  0  0  0  0  0  0  0  0
    0.9737  -45.0129    5.4499 H   0  0  0  0  0  0  0  0  0  0  0  0
   -0.5801  -46.8258    7.3588 H   0  0  0  0  0  0  0  0  0  0  0  0
   -0.1499  -45.1241    7.7404 H   0  0  0  0  0  0  0  0  0  0  0  0
   -5.7159  -43.8260    6.1257 H   0  0  0  0  0  0  0  0  0  0  0  0
   -3.4803  -44.1731    5.1106 H   0  0  0  0  0  0  0  0  0  0  0  0
   -2.1943  -46.2904    8.6344 H   0  0  0  0  0  0  0  0  0  0  0  0
   -7.2771  -44.1576    7.9911 H   0  0  0  0  0  0  0  0  0  0  0  0
   -7.7787  -45.1201   10.2313 H   0  0  0  0  0  0  0  0  0  0  0  0
   -6.0304  -46.4053   11.4541 H   0  0  0  0  0  0  0  0  0  0  0  0
   -3.7738  -46.7067   10.4498 H   0  0  0  0  0  0  0  0  0  0  0  0
    1.4748  -51.0032    7.4546 H   0  0  0  0  0  0  0  0  0  0  0  0
  1  2  2  0  0  0  0
  2  3  1  0  0  0  0
  2  4  1  0  0  0  0
  4 11  2  0  0  0  0
  4 26  1  0  0  0  0
  5  6  2  0  0  0  0
  5 10  1  0  0  0  0
  5 26  1  0  0  0  0
  6  7  1  0  0  0  0
  7  8  2  0  0  0  0
  8  9  1  0  0  0  0
  9 10  2  0  0  0  0
 10 11  1  0  0  0  0
 11 12  1  0  0  0  0
 12 13  1  0  0  0  0
 13 14  1  0  0  0  0
 14 15  1  0  0  0  0
 15 16  1  0  0  0  0
 16 18  2  0  0  0  0
 16 19  1  0  0  0  0
 17 18  1  0  0  0  0
 17 21  2  0  0  0  0
 19 20  2  0  0  0  0
 20 21  1  0  0  0  0
 20 25  1  0  0  0  0
 21 22  1  0  0  0  0
 22 23  2  0  0  0  0
 23 24  1  0  0  0  0
 24 25  2  0  0  0  0
  3 27  1  0  0  0  0
  6 28  1  0  0  0  0
  7 29  1  0  0  0  0
  8 30  1  0  0  0  0
  9 31  1  0  0  0  0
 12 32  1  0  0  0  0
 12 33  1  0  0  0  0
 13 34  1  0  0  0  0
 13 35  1  0  0  0  0
 14 36  1  0  0  0  0
 14 37  1  0  0  0  0
 17 38  1  0  0  0  0
 18 39  1  0  0  0  0
 19 40  1  0  0  0  0
 22 41  1  0  0  0  0
 23 42  1  0  0  0  0
 24 43  1  0  0  0  0
 25 44  1  0  0  0  0
 26 45  1  0  0  0  0
M  END
> <r_user_dG.exp>
-7.03469617128338

$$$$
43
  -OEChem-05192314073D
 Structure written by MMmdl.
 45 48  0     1  0  0  0  0  0999 V2000
    3.5643  -47.8843    6.3334 O   0  0  0  0  0  0  0  0  0  0  0  0
    2.9990  -48.9049    6.7868 C   0  0  0  0  0  0  0  0  0  0  0  0
    3.5887  -49.7095    7.5467 O   0  0  0  0  0  0  0  0  0  0  0  0
    1.5874  -49.1583    6.4235 C   0  0  0  0  0  0  0  0  0  0  0  0
   -0.3136  -50.4258    6.4859 C   0  0  0  0  0  0  0  0  0  0  0  0
   -1.3036  -51.4031    6.6994 C   0  0  0  0  0  0  0  0  0  0  0  0
   -2.5845  -51.2164    6.1482 C   0  0  0  0  0  0  0  0  0  0  0  0
   -2.8632  -50.0626    5.3949 C   0  0  0  0  0  0  0  0  0  0  0  0
   -1.8627  -49.0917    5.1852 C   0  0  0  0  0  0  0  0  0  0  0  0
   -0.5602  -49.2479    5.7208 C   0  0  0  0  0  0  0  0  0  0  0  0
    0.6473  -48.4594    5.6954 C   0  0  3  0  0  0  0  0  0  0  0  0
    0.8265  -47.1229    5.0263 C   0  0  0  0  0  0  0  0  0  0  0  0
    0.8821  -45.9477    6.0225 C   0  0  0  0  0  0  0  0  0  0  0  0
   -0.3512  -45.8393    6.9293 C   0  0  0  0  0  0  0  0  0  0  0  0
   -1.4585  -45.3868    6.1598 O   0  0  0  0  0  0  0  0  0  0  0  0
   -2.6734  -45.2518    6.7942 C   0  0  0  0  0  0  0  0  0  0  0  0
   -4.9576  -44.3709    6.6682 C   0  0  0  0  0  0  0  0  0  0  0  0
   -3.6845  -44.5617    6.0974 C   0  0  0  0  0  0  0  0  0  0  0  0
   -2.9615  -45.7676    8.0827 C   0  0  0  0  0  0  0  0  0  0  0  0
   -4.2421  -45.6033    8.6496 C   0  0  0  0  0  0  0  0  0  0  0  0
   -5.2428  -44.8900    7.9458 C   0  0  0  0  0  0  0  0  0  0  0  0
   -6.5177  -44.7121    8.5223 C   0  0  0  0  0  0  0  0  0  0  0  0
   -6.8021  -45.2571    9.7910 C   0  0  0  0  0  0  0  0  0  0  0  0
   -5.8102  -45.9817   10.4853 C   0  0  0  0  0  0  0  0  0  0  0  0
   -4.5321  -46.1533    9.9158 C   0  0  0  0  0  0  0  0  0  0  0  0
    1.0036  -50.3231    6.8929 N   0  0  0  0  0  0  0  0  0  0  0  0
    4.4782  -49.4111    7.6957 H   0  0  0  0  0  0  0  0  0  0  0  0
   -1.0825  -52.2866    7.2799 H   0  0  0  0  0  0  0  0  0  0  0  0
   -3.3532  -51.9590    6.3037 H   0  0  0  0  0  0  0  0  0  0  0  0
   -3.8479  -49.9194    4.9751 H   0  0  0  0  0  0  0  0  0  0  0  0
   -2.0937  -48.2109    4.6045 H   0  0  0  0  0  0  0  0  0  0  0  0
    0.9695  -48.9701    4.7760 H   0  0  0  0  0  0  0  0  0  0  0  0
    1.7661  -47.1413    4.4546 H   0  0  0  0  0  0  0  0  0  0  0  0
   -0.0173  -46.9597    4.3398 H   0  0  0  0  0  0  0  0  0  0  0  0
    1.7696  -46.0760    6.6595 H   0  0  0  0  0  0  0  0  0  0  0  0
    0.9737  -45.0129    5.4499 H   0  0  0  0  0  0  0  0  0  0  0  0
   -0.5801  -46.8258    7.3588 H   0  0  0  0  0  0  0  0  0  0  0  0
   -0.1499  -45.1241    7.7404 H   0  0  0  0  0  0  0  0  0  0  0  0
   -5.7159  -43.8260    6.1257 H   0  0  0  0  0  0  0  0  0  0  0  0
   -3.4803  -44.1731    5.1106 H   0  0  0  0  0  0  0  0  0  0  0  0
   -2.1943  -46.2904    8.6344 H   0  0  0  0  0  0  0  0  0  0  0  0
   -7.2771  -44.1576    7.9911 H   0  0  0  0  0  0  0  0  0  0  0  0
   -7.7787  -45.1201   10.2313 H   0  0  0  0  0  0  0  0  0  0  0  0
   -6.0304  -46.4053   11.4541 H   0  0  0  0  0  0  0  0  0  0  0  0
   -3.7738  -46.7067   10.4498 H   0  0  0  0  0  0  0  0  0  0  0  0
  1  2  2  0  0  0  0
  2  3  1  0  0  0  0
  2  4  1  0  0  0  0
  4 11  1  0  0  0  0
  4 26  2  0  0  0  0
  5  6  2  0  0  0  0
  5 10  1  0  0  0  0
  5 26  1  0  0  0  0
  6  7  1  0  0  0  0
  7  8  2  0  0  0  0
  8  9  1  0  0  0  0
  9 10  2  0  0  0  0
 10 11  1  0  0  0  0
 11 12  1  0  0  0  0
 12 13  1  0  0  0  0
 13 14  1  0  0  0  0
 14 15  1  0  0  0  0
 15 16  1  0  0  0  0
 16 18  2  0  0  0  0
 16 19  1  0  0  0  0
 17 18  1  0  0  0  0
 17 21  2  0  0  0  0
 19 20  2  0  0  0  0
 20 21  1  0  0  0  0
 20 25  1  0  0  0  0
 21 22  1  0  0  0  0
 22 23  2  0  0  0  0
 23 24  1  0  0  0  0
 24 25  2  0  0  0  0
  3 27  1  0  0  0  0
  6 28  1  0  0  0  0
  7 29  1  0  0  0  0
  8 30  1  0  0  0  0
  9 31  1  0  0  0  0
 11 32  1  0  0  0  0
 12 33  1  0  0  0  0
 12 34  1  0  0  0  0
 13 35  1  0  0  0  0
 13 36  1  0  0  0  0
 14 37  1  0  0  0  0
 14 38  1  0  0  0  0
 17 39  1  0  0  0  0
 18 40  1  0  0  0  0
 19 41  1  0  0  0  0
 22 42  1  0  0  0  0
 23 43  1  0  0  0  0
 24 44  1  0  0  0  0
 25 45  1  0  0  0  0
M  END
> <r_user_dG.exp>
-7.03469617128338

$$$$
43
  -OEChem-05192314073D
 Structure written by MMmdl.
 45 48  0     1  0  0  0  0  0999 V2000
    3.5643  -47.8843    6.3334 O   0  0  0  0  0  0  0  0  0  0  0  0
    2.9990  -48.9049    6.7868 C   0  0  0  0  0  0  0  0  0  0  0  0
    3.5887  -49.7095    7.5467 O   0  0  0  0  0  0  0  0  0  0  0  0
    1.5874  -49.1583    6.4235 C   0  0  3  0  0  0  0  0  0  0  0  0
   -0.3136  -50.4258    6.4859 C   0  0  0  0  0  0  0  0  0  0  0  0
   -1.3036  -51.4031    6.6994 C   0  0  0  0  0  0  0  0  0  0  0  0
   -2.5845  -51.2164    6.1482 C   0  0  0  0  0  0  0  0  0  0  0  0
   -2.8632  -50.0626    5.3949 C   0  0  0  0  0  0  0  0  0  0  0  0
   -1.8627  -49.0917    5.1852 C   0  0  0  0  0  0  0  0  0  0  0  0
   -0.5602  -49.2479    5.7208 C   0  0  0  0  0  0  0  0  0  0  0  0
    0.6473  -48.4594    5.6954 C   0  0  0  0  0  0  0  0  0  0  0  0
    0.8265  -47.1229    5.0263 C   0  0  0  0  0  0  0  0  0  0  0  0
    0.8821  -45.9477    6.0225 C   0  0  0  0  0  0  0  0  0  0  0  0
   -0.3512  -45.8393    6.9293 C   0  0  0  0  0  0  0  0  0  0  0  0
   -1.4585  -45.3868    6.1598 O   0  0  0  0  0  0  0  0  0  0  0  0
   -2.6734  -45.2518    6.7942 C   0  0  0  0  0  0  0  0  0  0  0  0
   -4.9576  -44.3709    6.6682 C   0  0  0  0  0  0  0  0  0  0  0  0
   -3.6845  -44.5617    6.0974 C   0  0  0  0  0  0  0  0  0  0  0  0
   -2.9615  -45.7676    8.0827 C   0  0  0  0  0  0  0  0  0  0  0  0
   -4.2421  -45.6033    8.6496 C   0  0  0  0  0  0  0  0  0  0  0  0
   -5.2428  -44.8900    7.9458 C   0  0  0  0  0  0  0  0  0  0  0  0
   -6.5177  -44.7121    8.5223 C   0  0  0  0  0  0  0  0  0  0  0  0
   -6.8021  -45.2571    9.7910 C   0  0  0  0  0  0  0  0  0  0  0  0
   -5.8102  -45.9817   10.4853 C   0  0  0  0  0  0  0  0  0  0  0  0
   -4.5321  -46.1533    9.9158 C   0  0  0  0  0  0  0  0  0  0  0  0
    1.0036  -50.3231    6.8929 N   0  0  0  0  0  0  0  0  0  0  0  0
    4.4782  -49.4111    7.6957 H   0  0  0  0  0  0  0  0  0  0  0  0
    1.9112  -49.6821    5.5120 H   0  0  0  0  0  0  0  0  0  0  0  0
   -1.0825  -52.2866    7.2799 H   0  0  0  0  0  0  0  0  0  0  0  0
   -3.3532  -51.9590    6.3037 H   0  0  0  0  0  0  0  0  0  0  0  0
   -3.8479  -49.9194    4.9751 H   0  0  0  0  0  0  0  0  0  0  0  0
   -2.0937  -48.2109    4.6045 H   0  0  0  0  0  0  0  0  0  0  0  0
    1.7661  -47.1413    4.4546 H   0  0  0  0  0  0  0  0  0  0  0  0
   -0.0173  -46.9597    4.3398 H   0  0  0  0  0  0  0  0  0  0  0  0
    1.7696  -46.0760    6.6595 H   0  0  0  0  0  0  0  0  0  0  0  0
    0.9737  -45.0129    5.4499 H   0  0  0  0  0  0  0  0  0  0  0  0
   -0.5801  -46.8258    7.3588 H   0  0  0  0  0  0  0  0  0  0  0  0
   -0.1499  -45.1241    7.7404 H   0  0  0  0  0  0  0  0  0  0  0  0
   -5.7159  -43.8260    6.1257 H   0  0  0  0  0  0  0  0  0  0  0  0
   -3.4803  -44.1731    5.1106 H   0  0  0  0  0  0  0  0  0  0  0  0
   -2.1943  -46.2904    8.6344 H   0  0  0  0  0  0  0  0  0  0  0  0
   -7.2771  -44.1576    7.9911 H   0  0  0  0  0  0  0  0  0  0  0  0
   -7.7787  -45.1201   10.2313 H   0  0  0  0  0  0  0  0  0  0  0  0
   -6.0304  -46.4053   11.4541 H   0  0  0  0  0  0  0  0  0  0  0  0
   -3.7738  -46.7067   10.4498 H   0  0  0  0  0  0  0  0  0  0  0  0
  1  2  2  0  0  0  0
  2  3  1  0  0  0  0
  2  4  1  0  0  0  0
  4 11  1  0  0  0  0
  4 26  1  0  0  0  0
  5  6  1  0  0  0  0
  5 10  1  0  0  0  0
  5 26  2  0  0  0  0
  6  7  2  0  0  0  0
  7  8  1  0  0  0  0
  8  9  2  0  0  0  0
  9 10  1  0  0  0  0
 10 11  2  0  0  0  0
 11 12  1  0  0  0  0
 12 13  1  0  0  0  0
 13 14  1  0  0  0  0
 14 15  1  0  0  0  0
 15 16  1  0  0  0  0
 16 18  2  0  0  0  0
 16 19  1  0  0  0  0
 17 18  1  0  0  0  0
 17 21  2  0  0  0  0
 19 20  2  0  0  0  0
 20 21  1  0  0  0  0
 20 25  1  0  0  0  0
 21 22  1  0  0  0  0
 22 23  2  0  0  0  0
 23 24  1  0  0  0  0
 24 25  2  0  0  0  0
  3 27  1  0  0  0  0
  4 28  1  0  0  0  0
  6 29  1  0  0  0  0
  7 30  1  0  0  0  0
  8 31  1  0  0  0  0
  9 32  1  0  0  0  0
 12 33  1  0  0  0  0
 12 34  1  0  0  0  0
 13 35  1  0  0  0  0
 13 36  1  0  0  0  0
 14 37  1  0  0  0  0
 14 38  1  0  0  0  0
 17 39  1  0  0  0  0
 18 40  1  0  0  0  0
 19 41  1  0  0  0  0
 22 42  1  0  0  0  0
 23 43  1  0  0  0  0
 24 44  1  0  0  0  0
 25 45  1  0  0  0  0
M  END
> <r_user_dG.exp>
-7.03469617128338

$$$$
43
  -OEChem-05192314073D
 Structure written by MMmdl.
 45 48  0     1  0  0  0  0  0999 V2000
    3.5643  -47.8843    6.3334 O   0  0  0  0  0  0  0  0  0  0  0  0
    2.9990  -48.9049    6.7868 C   0  0  0  0  0  0  0  0  0  0  0  0
    3.5887  -49.7095    7.5467 O   0  0  0  0  0  0  0  0  0  0  0  0
    1.5874  -49.1583    6.4235 C   0  0  0  0  0  0  0  0  0  0  0  0
   -0.3136  -50.4258    6.4859 C   0  0  0  0  0  0  0  0  0  0  0  0
   -1.3036  -51.4031    6.6994 C   0  0  0  0  0  0  0  0  0  0  0  0
   -2.5845  -51.2164    6.1482 C   0  0  0  0  0  0  0  0  0  0  0  0
   -2.8632  -50.0626    5.3949 C   0  0  0  0  0  0  0  0  0  0  0  0
   -1.8627  -49.0917    5.1852 C   0  0  0  0  0  0  0  0  0  0  0  0
   -0.5602  -49.2479    5.7208 C   0  0  3  0  0  0  0  0  0  0  0  0
    0.6473  -48.4594    5.6954 C   0  0  0  0  0  0  0  0  0  0  0  0
    0.8265  -47.1229    5.0263 C   0  0  0  0  0  0  0  0  0  0  0  0
    0.8821  -45.9477    6.0225 C   0  0  0  0  0  0  0  0  0  0  0  0
   -0.3512  -45.8393    6.9293 C   0  0  0  0  0  0  0  0  0  0  0  0
   -1.4585  -45.3868    6.1598 O   0  0  0  0  0  0  0  0  0  0  0  0
   -2.6734  -45.2518    6.7942 C   0  0  0  0  0  0  0  0  0  0  0  0
   -4.9576  -44.3709    6.6682 C   0  0  0  0  0  0  0  0  0  0  0  0
   -3.6845  -44.5617    6.0974 C   0  0  0  0  0  0  0  0  0  0  0  0
   -2.9615  -45.7676    8.0827 C   0  0  0  0  0  0  0  0  0  0  0  0
   -4.2421  -45.6033    8.6496 C   0  0  0  0  0  0  0  0  0  0  0  0
   -5.2428  -44.8900    7.9458 C   0  0  0  0  0  0  0  0  0  0  0  0
   -6.5177  -44.7121    8.5223 C   0  0  0  0  0  0  0  0  0  0  0  0
   -6.8021  -45.2571    9.7910 C   0  0  0  0  0  0  0  0  0  0  0  0
   -5.8102  -45.9817   10.4853 C   0  0  0  0  0  0  0  0  0  0  0  0
   -4.5321  -46.1533    9.9158 C   0  0  0  0  0  0  0  0  0  0  0  0
    1.0036  -50.3231    6.8929 N   0  0  0  0  0  0  0  0  0  0  0  0
    4.4782  -49.4111    7.6957 H   0  0  0  0  0  0  0  0  0  0  0  0
   -1.0825  -52.2866    7.2799 H   0  0  0  0  0  0  0  0  0  0  0  0
   -3.3532  -51.9590    6.3037 H   0  0  0  0  0  0  0  0  0  0  0  0
   -3.8479  -49.9194    4.9751 H   0  0  0  0  0  0  0  0  0  0  0  0
   -2.0937  -48.2109    4.6045 H   0  0  0  0  0  0  0  0  0  0  0  0
   -0.2427  -49.7706    4.8065 H   0  0  0  0  0  0  0  0  0  0  0  0
    1.7661  -47.1413    4.4546 H   0  0  0  0  0  0  0  0  0  0  0  0
   -0.0173  -46.9597    4.3398 H   0  0  0  0  0  0  0  0  0  0  0  0
    1.7696  -46.0760    6.6595 H   0  0  0  0  0  0  0  0  0  0  0  0
    0.9737  -45.0129    5.4499 H   0  0  0  0  0  0  0  0  0  0  0  0
   -0.5801  -46.8258    7.3588 H   0  0  0  0  0  0  0  0  0  0  0  0
   -0.1499  -45.1241    7.7404 H   0  0  0  0  0  0  0  0  0  0  0  0
   -5.7159  -43.8260    6.1257 H   0  0  0  0  0  0  0  0  0  0  0  0
   -3.4803  -44.1731    5.1106 H   0  0  0  0  0  0  0  0  0  0  0  0
   -2.1943  -46.2904    8.6344 H   0  0  0  0  0  0  0  0  0  0  0  0
   -7.2771  -44.1576    7.9911 H   0  0  0  0  0  0  0  0  0  0  0  0
   -7.7787  -45.1201   10.2313 H   0  0  0  0  0  0  0  0  0  0  0  0
   -6.0304  -46.4053   11.4541 H   0  0  0  0  0  0  0  0  0  0  0  0
   -3.7738  -46.7067   10.4498 H   0  0  0  0  0  0  0  0  0  0  0  0
  1  2  2  0  0  0  0
  2  3  1  0  0  0  0
  2  4  1  0  0  0  0
  4 11  2  0  0  0  0
  4 26  1  0  0  0  0
  5  6  1  0  0  0  0
  5 10  1  0  0  0  0
  5 26  2  0  0  0  0
  6  7  2  0  0  0  0
  7  8  1  0  0  0  0
  8  9  2  0  0  0  0
  9 10  1  0  0  0  0
 10 11  1  0  0  0  0
 11 12  1  0  0  0  0
 12 13  1  0  0  0  0
 13 14  1  0  0  0  0
 14 15  1  0  0  0  0
 15 16  1  0  0  0  0
 16 18  2  0  0  0  0
 16 19  1  0  0  0  0
 17 18  1  0  0  0  0
 17 21  2  0  0  0  0
 19 20  2  0  0  0  0
 20 21  1  0  0  0  0
 20 25  1  0  0  0  0
 21 22  1  0  0  0  0
 22 23  2  0  0  0  0
 23 24  1  0  0  0  0
 24 25  2  0  0  0  0
  3 27  1  0  0  0  0
  6 28  1  0  0  0  0
  7 29  1  0  0  0  0
  8 30  1  0  0  0  0
  9 31  1  0  0  0  0
 10 32  1  0  0  0  0
 12 33  1  0  0  0  0
 12 34  1  0  0  0  0
 13 35  1  0  0  0  0
 13 36  1  0  0  0  0
 14 37  1  0  0  0  0
 14 38  1  0  0  0  0
 17 39  1  0  0  0  0
 18 40  1  0  0  0  0
 19 41  1  0  0  0  0
 22 42  1  0  0  0  0
 23 43  1  0  0  0  0
 24 44  1  0  0  0  0
 25 45  1  0  0  0  0
M  END
> <r_user_dG.exp>
-7.03469617128338

$$$$
43
  -OEChem-05192314073D
 Structure written by MMmdl.
 45 48  0     1  0  0  0  0  0999 V2000
    3.5643  -47.8843    6.3334 O   0  0  0  0  0  0  0  0  0  0  0  0
    2.9990  -48.9049    6.7868 C   0  0  0  0  0  0  0  0  0  0  0  0
    3.5887  -49.7095    7.5467 O   0  0  0  0  0  0  0  0  0  0  0  0
    1.5874  -49.1583    6.4235 C   0  0  0  0  0  0  0  0  0  0  0  0
   -0.3136  -50.4258    6.4859 C   0  0  3  0  0  0  0  0  0  0  0  0
   -1.3036  -51.4031    6.6994 C   0  0  0  0  0  0  0  0  0  0  0  0
   -2.5845  -51.2164    6.1482 C   0  0  0  0  0  0  0  0  0  0  0  0
   -2.8632  -50.0626    5.3949 C   0  0  0  0  0  0  0  0  0  0  0  0
   -1.8627  -49.0917    5.1852 C   0  0  0  0  0  0  0  0  0  0  0  0
   -0.5602  -49.2479    5.7208 C   0  0  0  0  0  0  0  0  0  0  0  0
    0.6473  -48.4594    5.6954 C   0  0  0  0  0  0  0  0  0  0  0  0
    0.8265  -47.1229    5.0263 C   0  0  0  0  0  0  0  0  0  0  0  0
    0.8821  -45.9477    6.0225 C   0  0  0  0  0  0  0  0  0  0  0  0
   -0.3512  -45.8393    6.9293 C   0  0  0  0  0  0  0  0  0  0  0  0
   -1.4585  -45.3868    6.1598 O   0  0  0  0  0  0  0  0  0  0  0  0
   -2.6734  -45.2518    6.7942 C   0  0  0  0  0  0  0  0  0  0  0  0
   -4.9576  -44.3709    6.6682 C   0  0  0  0  0  0  0  0  0  0  0  0
   -3.6845  -44.5617    6.0974 C   0  0  0  0  0  0  0  0  0  0  0  0
   -2.9615  -45.7676    8.0827 C   0  0  0  0  0  0  0  0  0  0  0  0
   -4.2421  -45.6033    8.6496 C   0  0  0  0  0  0  0  0  0  0  0  0
   -5.2428  -44.8900    7.9458 C   0  0  0  0  0  0  0  0  0  0  0  0
   -6.5177  -44.7121    8.5223 C   0  0  0  0  0  0  0  0  0  0  0  0
   -6.8021  -45.2571    9.7910 C   0  0  0  0  0  0  0  0  0  0  0  0
   -5.8102  -45.9817   10.4853 C   0  0  0  0  0  0  0  0  0  0  0  0
   -4.5321  -46.1533    9.9158 C   0  0  0  0  0  0  0  0  0  0  0  0
    1.0036  -50.3231    6.8929 N   0  0  0  0  0  0  0  0  0  0  0  0
    4.4782  -49.4111    7.6957 H   0  0  0  0  0  0  0  0  0  0  0  0
    0.0086  -50.9508    5.5745 H   0  0  0  0  0  0  0  0  0  0  0  0
   -1.0825  -52.2866    7.2799 H   0  0  0  0  0  0  0  0  0  0  0  0
   -3.3532  -51.9590    6.3037 H   0  0  0  0  0  0  0  0  0  0  0  0
   -3.8479  -49.9194    4.9751 H   0  0  0  0  0  0  0  0  0  0  0  0
   -2.0937  -48.2109    4.6045 H   0  0  0  0  0  0  0  0  0  0  0  0
    1.7661  -47.1413    4.4546 H   0  0  0  0  0  0  0  0  0  0  0  0
   -0.0173  -46.9597    4.3398 H   0  0  0  0  0  0  0  0  0  0  0  0
    1.7696  -46.0760    6.6595 H   0  0  0  0  0  0  0  0  0  0  0  0
    0.9737  -45.0129    5.4499 H   0  0  0  0  0  0  0  0  0  0  0  0
   -0.5801  -46.8258    7.3588 H   0  0  0  0  0  0  0  0  0  0  0  0
   -0.1499  -45.1241    7.7404 H   0  0  0  0  0  0  0  0  0  0  0  0
   -5.7159  -43.8260    6.1257 H   0  0  0  0  0  0  0  0  0  0  0  0
   -3.4803  -44.1731    5.1106 H   0  0  0  0  0  0  0  0  0  0  0  0
   -2.1943  -46.2904    8.6344 H   0  0  0  0  0  0  0  0  0  0  0  0
   -7.2771  -44.1576    7.9911 H   0  0  0  0  0  0  0  0  0  0  0  0
   -7.7787  -45.1201   10.2313 H   0  0  0  0  0  0  0  0  0  0  0  0
   -6.0304  -46.4053   11.4541 H   0  0  0  0  0  0  0  0  0  0  0  0
   -3.7738  -46.7067   10.4498 H   0  0  0  0  0  0  0  0  0  0  0  0
  1  2  2  0  0  0  0
  2  3  1  0  0  0  0
  2  4  1  0  0  0  0
  4 11  1  0  0  0  0
  4 26  2  0  0  0  0
  5  6  1  0  0  0  0
  5 10  1  0  0  0  0
  5 26  1  0  0  0  0
  6  7  2  0  0  0  0
  7  8  1  0  0  0  0
  8  9  2  0  0  0  0
  9 10  1  0  0  0  0
 10 11  2  0  0  0  0
 11 12  1  0  0  0  0
 12 13  1  0  0  0  0
 13 14  1  0  0  0  0
 14 15  1  0  0  0  0
 15 16  1  0  0  0  0
 16 18  2  0  0  0  0
 16 19  1  0  0  0  0
 17 18  1  0  0  0  0
 17 21  2  0  0  0  0
 19 20  2  0  0  0  0
 20 21  1  0  0  0  0
 20 25  1  0  0  0  0
 21 22  1  0  0  0  0
 22 23  2  0  0  0  0
 23 24  1  0  0  0  0
 24 25  2  0  0  0  0
  3 27  1  0  0  0  0
  5 28  1  0  0  0  0
  6 29  1  0  0  0  0
  7 30  1  0  0  0  0
  8 31  1  0  0  0  0
  9 32  1  0  0  0  0
 12 33  1  0  0  0  0
 12 34  1  0  0  0  0
 13 35  1  0  0  0  0
 13 36  1  0  0  0  0
 14 37  1  0  0  0  0
 14 38  1  0  0  0  0
 17 39  1  0  0  0  0
 18 40  1  0  0  0  0
 19 41  1  0  0  0  0
 22 42  1  0  0  0  0
 23 43  1  0  0  0  0
 24 44  1  0  0  0  0
 25 45  1  0  0  0  0
M  END
> <r_user_dG.exp>
-7.03469617128338

$$$$
43
  -OEChem-05192314073D
 Structure written by MMmdl.
 45 48  0     0  0  0  0  0  0999 V2000
    3.5643  -47.8843    6.3334 O   0  0  0  0  0  0  0  0  0  0  0  0
    2.9990  -48.9049    6.7868 C   0  0  0  0  0  0  0  0  0  0  0  0
    3.5887  -49.7095    7.5467 O   0  0  0  0  0  0  0  0  0  0  0  0
    1.5874  -49.1583    6.4235 C   0  0  0  0  0  0  0  0  0  0  0  0
   -0.3136  -50.4258    6.4859 C   0  0  0  0  0  0  0  0  0  0  0  0
   -1.3036  -51.4031    6.6994 C   0  0  0  0  0  0  0  0  0  0  0  0
   -2.5845  -51.2164    6.1482 C   0  0  0  0  0  0  0  0  0  0  0  0
   -2.8632  -50.0626    5.3949 C   0  0  0  0  0  0  0  0  0  0  0  0
   -1.8627  -49.0917    5.1852 C   0  0  0  0  0  0  0  0  0  0  0  0
   -0.5602  -49.2479    5.7208 C   0  0  0  0  0  0  0  0  0  0  0  0
    0.6473  -48.4594    5.6954 C   0  0  0  0  0  0  0  0  0  0  0  0
    0.8265  -47.1229    5.0263 C   0  0  0  0  0  0  0  0  0  0  0  0
    0.8821  -45.9477    6.0225 C   0  0  0  0  0  0  0  0  0  0  0  0
   -0.3512  -45.8393    6.9293 C   0  0  0  0  0  0  0  0  0  0  0  0
   -1.4585  -45.3868    6.1598 O   0  0  0  0  0  0  0  0  0  0  0  0
   -2.6734  -45.2518    6.7942 C   0  0  0  0  0  0  0  0  0  0  0  0
   -4.9576  -44.3709    6.6682 C   0  0  0  0  0  0  0  0  0  0  0  0
   -3.6845  -44.5617    6.0974 C   0  0  0  0  0  0  0  0  0  0  0  0
   -2.9615  -45.7676    8.0827 C   0  0  0  0  0  0  0  0  0  0  0  0
   -4.2421  -45.6033    8.6496 C   0  0  0  0  0  0  0  0  0  0  0  0
   -5.2428  -44.8900    7.9458 C   0  0  0  0  0  0  0  0  0  0  0  0
   -6.5177  -44.7121    8.5223 C   0  0  0  0  0  0  0  0  0  0  0  0
   -6.8021  -45.2571    9.7910 C   0  0  0  0  0  0  0  0  0  0  0  0
   -5.8102  -45.9817   10.4853 C   0  0  0  0  0  0  0  0  0  0  0  0
   -4.5321  -46.1533    9.9158 C   0  0  0  0  0  0  0  0  0  0  0  0
    1.0036  -50.3231    6.8929 N   0  0  0  0  0  0  0  0  0  0  0  0
    4.4782  -49.4111    7.6957 H   0  0  0  0  0  0  0  0  0  0  0  0
   -1.0825  -52.2866    7.2799 H   0  0  0  0  0  0  0  0  0  0  0  0
   -3.3532  -51.9590    6.3037 H   0  0  0  0  0  0  0  0  0  0  0  0
   -3.1854  -50.4045    4.4003 H   0  0  0  0  0  0  0  0  0  0  0  0
   -3.6991  -49.5522    5.8958 H   0  0  0  0  0  0  0  0  0  0  0  0
   -2.0937  -48.2109    4.6045 H   0  0  0  0  0  0  0  0  0  0  0  0
    1.7661  -47.1413    4.4546 H   0  0  0  0  0  0  0  0  0  0  0  0
   -0.0173  -46.9597    4.3398 H   0  0  0  0  0  0  0  0  0  0  0  0
    1.7696  -46.0760    6.6595 H   0  0  0  0  0  0  0  0  0  0  0  0
    0.9737  -45.0129    5.4499 H   0  0  0  0  0  0  0  0  0  0  0  0
   -0.5801  -46.8258    7.3588 H   0  0  0  0  0  0  0  0  0  0  0  0
   -0.1499  -45.1241    7.7404 H   0  0  0  0  0  0  0  0  0  0  0  0
   -5.7159  -43.8260    6.1257 H   0  0  0  0  0  0  0  0  0  0  0  0
   -3.4803  -44.1731    5.1106 H   0  0  0  0  0  0  0  0  0  0  0  0
   -2.1943  -46.2904    8.6344 H   0  0  0  0  0  0  0  0  0  0  0  0
   -7.2771  -44.1576    7.9911 H   0  0  0  0  0  0  0  0  0  0  0  0
   -7.7787  -45.1201   10.2313 H   0  0  0  0  0  0  0  0  0  0  0  0
   -6.0304  -46.4053   11.4541 H   0  0  0  0  0  0  0  0  0  0  0  0
   -3.7738  -46.7067   10.4498 H   0  0  0  0  0  0  0  0  0  0  0  0
  1  2  2  0  0  0  0
  2  3  1  0  0  0  0
  2  4  1  0  0  0  0
  4 11  2  0  0  0  0
  4 26  1  0  0  0  0
  5  6  1  0  0  0  0
  5 10  1  0  0  0  0
  5 26  2  0  0  0  0
  6  7  2  0  0  0  0
  7  8  1  0  0  0  0
  8  9  1  0  0  0  0
  9 10  2  0  0  0  0
 10 11  1  0  0  0  0
 11 12  1  0  0  0  0
 12 13  1  0  0  0  0
 13 14  1  0  0  0  0
 14 15  1  0  0  0  0
 15 16  1  0  0  0  0
 16 18  2  0  0  0  0
 16 19  1  0  0  0  0
 17 18  1  0  0  0  0
 17 21  2  0  0  0  0
 19 20  2  0  0  0  0
 20 21  1  0  0  0  0
 20 25  1  0  0  0  0
 21 22  1  0  0  0  0
 22 23  2  0  0  0  0
 23 24  1  0  0  0  0
 24 25  2  0  0  0  0
  3 27  1  0  0  0  0
  6 28  1  0  0  0  0
  7 29  1  0  0  0  0
  8 30  1  0  0  0  0
  8 31  1  0  0  0  0
  9 32  1  0  0  0  0
 12 33  1  0  0  0  0
 12 34  1  0  0  0  0
 13 35  1  0  0  0  0
 13 36  1  0  0  0  0
 14 37  1  0  0  0  0
 14 38  1  0  0  0  0
 17 39  1  0  0  0  0
 18 40  1  0  0  0  0
 19 41  1  0  0  0  0
 22 42  1  0  0  0  0
 23 43  1  0  0  0  0
 24 44  1  0  0  0  0
 25 45  1  0  0  0  0
M  END
> <r_user_dG.exp>
-7.03469617128338

$$$$
43
  -OEChem-05192314073D
 Structure written by MMmdl.
 45 48  0     0  0  0  0  0  0999 V2000
    3.5643  -47.8843    6.3334 O   0  0  0  0  0  0  0  0  0  0  0  0
    2.9990  -48.9049    6.7868 C   0  0  0  0  0  0  0  0  0  0  0  0
    3.5887  -49.7095    7.5467 O   0  0  0  0  0  0  0  0  0  0  0  0
    1.5874  -49.1583    6.4235 C   0  0  0  0  0  0  0  0  0  0  0  0
   -0.3136  -50.4258    6.4859 C   0  0  0  0  0  0  0  0  0  0  0  0
   -1.3036  -51.4031    6.6994 C   0  0  0  0  0  0  0  0  0  0  0  0
   -2.5845  -51.2164    6.1482 C   0  0  0  0  0  0  0  0  0  0  0  0
   -2.8632  -50.0626    5.3949 C   0  0  0  0  0  0  0  0  0  0  0  0
   -1.8627  -49.0917    5.1852 C   0  0  0  0  0  0  0  0  0  0  0  0
   -0.5602  -49.2479    5.7208 C   0  0  0  0  0  0  0  0  0  0  0  0
    0.6473  -48.4594    5.6954 C   0  0  0  0  0  0  0  0  0  0  0  0
    0.8265  -47.1229    5.0263 C   0  0  0  0  0  0  0  0  0  0  0  0
    0.8821  -45.9477    6.0225 C   0  0  0  0  0  0  0  0  0  0  0  0
   -0.3512  -45.8393    6.9293 C   0  0  0  0  0  0  0  0  0  0  0  0
   -1.4585  -45.3868    6.1598 O   0  0  0  0  0  0  0  0  0  0  0  0
   -2.6734  -45.2518    6.7942 C   0  0  0  0  0  0  0  0  0  0  0  0
   -4.9576  -44.3709    6.6682 C   0  0  0  0  0  0  0  0  0  0  0  0
   -3.6845  -44.5617    6.0974 C   0  0  0  0  0  0  0  0  0  0  0  0
   -2.9615  -45.7676    8.0827 C   0  0  0  0  0  0  0  0  0  0  0  0
   -4.2421  -45.6033    8.6496 C   0  0  0  0  0  0  0  0  0  0  0  0
   -5.2428  -44.8900    7.9458 C   0  0  0  0  0  0  0  0  0  0  0  0
   -6.5177  -44.7121    8.5223 C   0  0  0  0  0  0  0  0  0  0  0  0
   -6.8021  -45.2571    9.7910 C   0  0  0  0  0  0  0  0  0  0  0  0
   -5.8102  -45.9817   10.4853 C   0  0  0  0  0  0  0  0  0  0  0  0
   -4.5321  -46.1533    9.9158 C   0  0  0  0  0  0  0  0  0  0  0  0
    1.0036  -50.3231    6.8929 N   0  0  0  0  0  0  0  0  0  0  0  0
    4.4782  -49.4111    7.6957 H   0  0  0  0  0  0  0  0  0  0  0  0
   -1.0825  -52.2866    7.2799 H   0  0  0  0  0  0  0  0  0  0  0  0
   -2.7769  -52.0783    5.4923 H   0  0  0  0  0  0  0  0  0  0  0  0
   -3.2961  -51.2279    6.9869 H   0  0  0  0  0  0  0  0  0  0  0  0
   -3.8479  -49.9194    4.9751 H   0  0  0  0  0  0  0  0  0  0  0  0
   -2.0937  -48.2109    4.6045 H   0  0  0  0  0  0  0  0  0  0  0  0
    1.7661  -47.1413    4.4546 H   0  0  0  0  0  0  0  0  0  0  0  0
   -0.0173  -46.9597    4.3398 H   0  0  0  0  0  0  0  0  0  0  0  0
    1.7696  -46.0760    6.6595 H   0  0  0  0  0  0  0  0  0  0  0  0
    0.9737  -45.0129    5.4499 H   0  0  0  0  0  0  0  0  0  0  0  0
   -0.5801  -46.8258    7.3588 H   0  0  0  0  0  0  0  0  0  0  0  0
   -0.1499  -45.1241    7.7404 H   0  0  0  0  0  0  0  0  0  0  0  0
   -5.7159  -43.8260    6.1257 H   0  0  0  0  0  0  0  0  0  0  0  0
   -3.4803  -44.1731    5.1106 H   0  0  0  0  0  0  0  0  0  0  0  0
   -2.1943  -46.2904    8.6344 H   0  0  0  0  0  0  0  0  0  0  0  0
   -7.2771  -44.1576    7.9911 H   0  0  0  0  0  0  0  0  0  0  0  0
   -7.7787  -45.1201   10.2313 H   0  0  0  0  0  0  0  0  0  0  0  0
   -6.0304  -46.4053   11.4541 H   0  0  0  0  0  0  0  0  0  0  0  0
   -3.7738  -46.7067   10.4498 H   0  0  0  0  0  0  0  0  0  0  0  0
  1  2  2  0  0  0  0
  2  3  1  0  0  0  0
  2  4  1  0  0  0  0
  4 11  1  0  0  0  0
  4 26  2  0  0  0  0
  5  6  2  0  0  0  0
  5 10  1  0  0  0  0
  5 26  1  0  0  0  0
  6  7  1  0  0  0  0
  7  8  1  0  0  0  0
  8  9  2  0  0  0  0
  9 10  1  0  0  0  0
 10 11  2  0  0  0  0
 11 12  1  0  0  0  0
 12 13  1  0  0  0  0
 13 14  1  0  0  0  0
 14 15  1  0  0  0  0
 15 16  1  0  0  0  0
 16 18  2  0  0  0  0
 16 19  1  0  0  0  0
 17 18  1  0  0  0  0
 17 21  2  0  0  0  0
 19 20  2  0  0  0  0
 20 21  1  0  0  0  0
 20 25  1  0  0  0  0
 21 22  1  0  0  0  0
 22 23  2  0  0  0  0
 23 24  1  0  0  0  0
 24 25  2  0  0  0  0
  3 27  1  0  0  0  0
  6 28  1  0  0  0  0
  7 29  1  0  0  0  0
  7 30  1  0  0  0  0
  8 31  1  0  0  0  0
  9 32  1  0  0  0  0
 12 33  1  0  0  0  0
 12 34  1  0  0  0  0
 13 35  1  0  0  0  0
 13 36  1  0  0  0  0
 14 37  1  0  0  0  0
 14 38  1  0  0  0  0
 17 39  1  0  0  0  0
 18 40  1  0  0  0  0
 19 41  1  0  0  0  0
 22 42  1  0  0  0  0
 23 43  1  0  0  0  0
 24 44  1  0  0  0  0
 25 45  1  0  0  0  0
M  END
> <r_user_dG.exp>
-7.03469617128338

$$$$
43
  -OEChem-05192314073D
 Structure written by MMmdl.
 45 48  0     0  0  0  0  0  0999 V2000
    3.5643  -47.8843    6.3334 O   0  0  0  0  0  0  0  0  0  0  0  0
    2.9990  -48.9049    6.7868 C   0  0  0  0  0  0  0  0  0  0  0  0
    3.5887  -49.7095    7.5467 O   0  0  0  0  0  0  0  0  0  0  0  0
    1.5874  -49.1583    6.4235 C   0  0  0  0  0  0  0  0  0  0  0  0
   -0.3136  -50.4258    6.4859 C   0  0  0  0  0  0  0  0  0  0  0  0
   -1.3036  -51.4031    6.6994 C   0  0  0  0  0  0  0  0  0  0  0  0
   -2.5845  -51.2164    6.1482 C   0  0  0  0  0  0  0  0  0  0  0  0
   -2.8632  -50.0626    5.3949 C   0  0  0  0  0  0  0  0  0  0  0  0
   -1.8627  -49.0917    5.1852 C   0  0  0  0  0  0  0  0  0  0  0  0
   -0.5602  -49.2479    5.7208 C   0  0  0  0  0  0  0  0  0  0  0  0
    0.6473  -48.4594    5.6954 C   0  0  0  0  0  0  0  0  0  0  0  0
    0.8265  -47.1229    5.0263 C   0  0  0  0  0  0  0  0  0  0  0  0
    0.8821  -45.9477    6.0225 C   0  0  0  0  0  0  0  0  0  0  0  0
   -0.3512  -45.8393    6.9293 C   0  0  0  0  0  0  0  0  0  0  0  0
   -1.4585  -45.3868    6.1598 O   0  0  0  0  0  0  0  0  0  0  0  0
   -2.6734  -45.2518    6.7942 C   0  0  0  0  0  0  0  0  0  0  0  0
   -4.9576  -44.3709    6.6682 C   0  0  0  0  0  0  0  0  0  0  0  0
   -3.6845  -44.5617    6.0974 C   0  0  0  0  0  0  0  0  0  0  0  0
   -2.9615  -45.7676    8.0827 C   0  0  0  0  0  0  0  0  0  0  0  0
   -4.2421  -45.6033    8.6496 C   0  0  0  0  0  0  0  0  0  0  0  0
   -5.2428  -44.8900    7.9458 C   0  0  0  0  0  0  0  0  0  0  0  0
   -6.5177  -44.7121    8.5223 C   0  0  0  0  0  0  0  0  0  0  0  0
   -6.8021  -45.2571    9.7910 C   0  0  0  0  0  0  0  0  0  0  0  0
   -5.8102  -45.9817   10.4853 C   0  0  0  0  0  0  0  0  0  0  0  0
   -4.5321  -46.1533    9.9158 C   0  0  0  0  0  0  0  0  0  0  0  0
    1.0036  -50.3231    6.8929 N   0  0  0  0  0  0  0  0  0  0  0  0
    4.4782  -49.4111    7.6957 H   0  0  0  0  0  0  0  0  0  0  0  0
   -0.9142  -52.3485    6.2938 H   0  0  0  0  0  0  0  0  0  0  0  0
   -1.4329  -51.4967    7.7878 H   0  0  0  0  0  0  0  0  0  0  0  0
   -3.3532  -51.9590    6.3037 H   0  0  0  0  0  0  0  0  0  0  0  0
   -3.8479  -49.9194    4.9751 H   0  0  0  0  0  0  0  0  0  0  0  0
   -2.0937  -48.2109    4.6045 H   0  0  0  0  0  0  0  0  0  0  0  0
    1.7661  -47.1413    4.4546 H   0  0  0  0  0  0  0  0  0  0  0  0
   -0.0173  -46.9597    4.3398 H   0  0  0  0  0  0  0  0  0  0  0  0
    1.7696  -46.0760    6.6595 H   0  0  0  0  0  0  0  0  0  0  0  0
    0.9737  -45.0129    5.4499 H   0  0  0  0  0  0  0  0  0  0  0  0
   -0.5801  -46.8258    7.3588 H   0  0  0  0  0  0  0  0  0  0  0  0
   -0.1499  -45.1241    7.7404 H   0  0  0  0  0  0  0  0  0  0  0  0
   -5.7159  -43.8260    6.1257 H   0  0  0  0  0  0  0  0  0  0  0  0
   -3.4803  -44.1731    5.1106 H   0  0  0  0  0  0  0  0  0  0  0  0
   -2.1943  -46.2904    8.6344 H   0  0  0  0  0  0  0  0  0  0  0  0
   -7.2771  -44.1576    7.9911 H   0  0  0  0  0  0  0  0  0  0  0  0
   -7.7787  -45.1201   10.2313 H   0  0  0  0  0  0  0  0  0  0  0  0
   -6.0304  -46.4053   11.4541 H   0  0  0  0  0  0  0  0  0  0  0  0
   -3.7738  -46.7067   10.4498 H   0  0  0  0  0  0  0  0  0  0  0  0
  1  2  2  0  0  0  0
  2  3  1  0  0  0  0
  2  4  1  0  0  0  0
  4 11  2  0  0  0  0
  4 26  1  0  0  0  0
  5  6  1  0  0  0  0
  5 10  1  0  0  0  0
  5 26  2  0  0  0  0
  6  7  1  0  0  0  0
  7  8  2  0  0  0  0
  8  9  1  0  0  0  0
  9 10  2  0  0  0  0
 10 11  1  0  0  0  0
 11 12  1  0  0  0  0
 12 13  1  0  0  0  0
 13 14  1  0  0  0  0
 14 15  1  0  0  0  0
 15 16  1  0  0  0  0
 16 18  2  0  0  0  0
 16 19  1  0  0  0  0
 17 18  1  0  0  0  0
 17 21  2  0  0  0  0
 19 20  2  0  0  0  0
 20 21  1  0  0  0  0
 20 25  1  0  0  0  0
 21 22  1  0  0  0  0
 22 23  2  0  0  0  0
 23 24  1  0  0  0  0
 24 25  2  0  0  0  0
  3 27  1  0  0  0  0
  6 28  1  0  0  0  0
  6 29  1  0  0  0  0
  7 30  1  0  0  0  0
  8 31  1  0  0  0  0
  9 32  1  0  0  0  0
 12 33  1  0  0  0  0
 12 34  1  0  0  0  0
 13 35  1  0  0  0  0
 13 36  1  0  0  0  0
 14 37  1  0  0  0  0
 14 38  1  0  0  0  0
 17 39  1  0  0  0  0
 18 40  1  0  0  0  0
 19 41  1  0  0  0  0
 22 42  1  0  0  0  0
 23 43  1  0  0  0  0
 24 44  1  0  0  0  0
 25 45  1  0  0  0  0
M  END
> <r_user_dG.exp>
-7.03469617128338

$$$$
43
  -OEChem-05192314073D
 Structure written by MMmdl.
 45 48  0     0  0  0  0  0  0999 V2000
    3.5643  -47.8843    6.3334 O   0  0  0  0  0  0  0  0  0  0  0  0
    2.9990  -48.9049    6.7868 C   0  0  0  0  0  0  0  0  0  0  0  0
    3.5887  -49.7095    7.5467 O   0  0  0  0  0  0  0  0  0  0  0  0
    1.5874  -49.1583    6.4235 C   0  0  0  0  0  0  0  0  0  0  0  0
   -0.3136  -50.4258    6.4859 C   0  0  0  0  0  0  0  0  0  0  0  0
   -1.3036  -51.4031    6.6994 C   0  0  0  0  0  0  0  0  0  0  0  0
   -2.5845  -51.2164    6.1482 C   0  0  0  0  0  0  0  0  0  0  0  0
   -2.8632  -50.0626    5.3949 C   0  0  0  0  0  0  0  0  0  0  0  0
   -1.8627  -49.0917    5.1852 C   0  0  0  0  0  0  0  0  0  0  0  0
   -0.5602  -49.2479    5.7208 C   0  0  0  0  0  0  0  0  0  0  0  0
    0.6473  -48.4594    5.6954 C   0  0  0  0  0  0  0  0  0  0  0  0
    0.8265  -47.1229    5.0263 C   0  0  0  0  0  0  0  0  0  0  0  0
    0.8821  -45.9477    6.0225 C   0  0  0  0  0  0  0  0  0  0  0  0
   -0.3512  -45.8393    6.9293 C   0  0  0  0  0  0  0  0  0  0  0  0
   -1.4585  -45.3868    6.1598 O   0  0  0  0  0  0  0  0  0  0  0  0
   -2.6734  -45.2518    6.7942 C   0  0  0  0  0  0  0  0  0  0  0  0
   -4.9576  -44.3709    6.6682 C   0  0  0  0  0  0  0  0  0  0  0  0
   -3.6845  -44.5617    6.0974 C   0  0  0  0  0  0  0  0  0  0  0  0
   -2.9615  -45.7676    8.0827 C   0  0  0  0  0  0  0  0  0  0  0  0
   -4.2421  -45.6033    8.6496 C   0  0  0  0  0  0  0  0  0  0  0  0
   -5.2428  -44.8900    7.9458 C   0  0  0  0  0  0  0  0  0  0  0  0
   -6.5177  -44.7121    8.5223 C   0  0  0  0  0  0  0  0  0  0  0  0
   -6.8021  -45.2571    9.7910 C   0  0  0  0  0  0  0  0  0  0  0  0
   -5.8102  -45.9817   10.4853 C   0  0  0  0  0  0  0  0  0  0  0  0
   -4.5321  -46.1533    9.9158 C   0  0  0  0  0  0  0  0  0  0  0  0
    1.0036  -50.3231    6.8929 N   0  0  0  0  0  0  0  0  0  0  0  0
    4.4782  -49.4111    7.6957 H   0  0  0  0  0  0  0  0  0  0  0  0
   -1.0825  -52.2866    7.2799 H   0  0  0  0  0  0  0  0  0  0  0  0
   -3.3532  -51.9590    6.3037 H   0  0  0  0  0  0  0  0  0  0  0  0
   -3.8479  -49.9194    4.9751 H   0  0  0  0  0  0  0  0  0  0  0  0
   -1.7421  -48.9996    4.0957 H   0  0  0  0  0  0  0  0  0  0  0  0
   -2.2551  -48.1479    5.5917 H   0  0  0  0  0  0  0  0  0  0  0  0
    1.7661  -47.1413    4.4546 H   0  0  0  0  0  0  0  0  0  0  0  0
   -0.0173  -46.9597    4.3398 H   0  0  0  0  0  0  0  0  0  0  0  0
    1.7696  -46.0760    6.6595 H   0  0  0  0  0  0  0  0  0  0  0  0
    0.9737  -45.0129    5.4499 H   0  0  0  0  0  0  0  0  0  0  0  0
   -0.5801  -46.8258    7.3588 H   0  0  0  0  0  0  0  0  0  0  0  0
   -0.1499  -45.1241    7.7404 H   0  0  0  0  0  0  0  0  0  0  0  0
   -5.7159  -43.8260    6.1257 H   0  0  0  0  0  0  0  0  0  0  0  0
   -3.4803  -44.1731    5.1106 H   0  0  0  0  0  0  0  0  0  0  0  0
   -2.1943  -46.2904    8.6344 H   0  0  0  0  0  0  0  0  0  0  0  0
   -7.2771  -44.1576    7.9911 H   0  0  0  0  0  0  0  0  0  0  0  0
   -7.7787  -45.1201   10.2313 H   0  0  0  0  0  0  0  0  0  0  0  0
   -6.0304  -46.4053   11.4541 H   0  0  0  0  0  0  0  0  0  0  0  0
   -3.7738  -46.7067   10.4498 H   0  0  0  0  0  0  0  0  0  0  0  0
  1  2  2  0  0  0  0
  2  3  1  0  0  0  0
  2  4  1  0  0  0  0
  4 11  1  0  0  0  0
  4 26  2  0  0  0  0
  5  6  2  0  0  0  0
  5 10  1  0  0  0  0
  5 26  1  0  0  0  0
  6  7  1  0  0  0  0
  7  8  2  0  0  0  0
  8  9  1  0  0  0  0
  9 10  1  0  0  0  0
 10 11  2  0  0  0  0
 11 12  1  0  0  0  0
 12 13  1  0  0  0  0
 13 14  1  0  0  0  0
 14 15  1  0  0  0  0
 15 16  1  0  0  0  0
 16 18  2  0  0  0  0
 16 19  1  0  0  0  0
 17 18  1  0  0  0  0
 17 21  2  0  0  0  0
 19 20  2  0  0  0  0
 20 21  1  0  0  0  0
 20 25  1  0  0  0  0
 21 22  1  0  0  0  0
 22 23  2  0  0  0  0
 23 24  1  0  0  0  0
 24 25  2  0  0  0  0
  3 27  1  0  0  0  0
  6 28  1  0  0  0  0
  7 29  1  0  0  0  0
  8 30  1  0  0  0  0
  9 31  1  0  0  0  0
  9 32  1  0  0  0  0
 12 33  1  0  0  0  0
 12 34  1  0  0  0  0
 13 35  1  0  0  0  0
 13 36  1  0  0  0  0
 14 37  1  0  0  0  0
 14 38  1  0  0  0  0
 17 39  1  0  0  0  0
 18 40  1  0  0  0  0
 19 41  1  0  0  0  0
 22 42  1  0  0  0  0
 23 43  1  0  0  0  0
 24 44  1  0  0  0  0
 25 45  1  0  0  0  0
M  END
> <r_user_dG.exp>
-7.03469617128338

$$$$
43
  -OEChem-05192314073D
 Structure written by MMmdl.
 45 48  0     0  0  0  0  0  0999 V2000
    3.5643  -47.8843    6.3334 O   0  0  0  0  0  0  0  0  0  0  0  0
    2.9990  -48.9049    6.7868 C   0  0  0  0  0  0  0  0  0  0  0  0
    3.5887  -49.7095    7.5467 O   0  0  0  0  0  0  0  0  0  0  0  0
    1.5874  -49.1583    6.4235 C   0  0  0  0  0  0  0  0  0  0  0  0
   -0.3136  -50.4258    6.4859 C   0  0  0  0  0  0  0  0  0  0  0  0
   -1.3036  -51.4031    6.6994 C   0  0  0  0  0  0  0  0  0  0  0  0
   -2.5845  -51.2164    6.1482 C   0  0  0  0  0  0  0  0  0  0  0  0
   -2.8632  -50.0626    5.3949 C   0  0  0  0  0  0  0  0  0  0  0  0
   -1.8627  -49.0917    5.1852 C   0  0  0  0  0  0  0  0  0  0  0  0
   -0.5602  -49.2479    5.7208 C   0  0  0  0  0  0  0  0  0  0  0  0
    0.6473  -48.4594    5.6954 C   0  0  0  0  0  0  0  0  0  0  0  0
    0.8265  -47.1229    5.0263 C   0  0  0  0  0  0  0  0  0  0  0  0
    0.8821  -45.9477    6.0225 C   0  0  0  0  0  0  0  0  0  0  0  0
   -0.3512  -45.8393    6.9293 C   0  0  0  0  0  0  0  0  0  0  0  0
   -1.4585  -45.3868    6.1598 O   0  0  0  0  0  0  0  0  0  0  0  0
   -2.6734  -45.2518    6.7942 C   0  0  0  0  0  0  0  0  0  0  0  0
   -4.9576  -44.3709    6.6682 C   0  0  0  0  0  0  0  0  0  0  0  0
   -3.6845  -44.5617    6.0974 C   0  0  0  0  0  0  0  0  0  0  0  0
   -2.9615  -45.7676    8.0827 C   0  0  0  0  0  0  0  0  0  0  0  0
   -4.2421  -45.6033    8.6496 C   0  0  0  0  0  0  0  0  0  0  0  0
   -5.2428  -44.8900    7.9458 C   0  0  0  0  0  0  0  0  0  0  0  0
   -6.5177  -44.7121    8.5223 C   0  0  0  0  0  0  0  0  0  0  0  0
   -6.8021  -45.2571    9.7910 C   0  0  0  0  0  0  0  0  0  0  0  0
   -5.8102  -45.9817   10.4853 C   0  0  0  0  0  0  0  0  0  0  0  0
   -4.5321  -46.1533    9.9158 C   0  0  0  0  0  0  0  0  0  0  0  0
    1.0036  -50.3231    6.8929 N   0  0  0  0  0  0  0  0  0  0  0  0
    2.9579  -47.4047    5.7814 H   0  0  0  0  0  0  0  0  0  0  0  0
    2.9974  -50.4148    7.7821 H   0  0  0  0  0  0  0  0  0  0  0  0
   -1.0825  -52.2866    7.2799 H   0  0  0  0  0  0  0  0  0  0  0  0
   -3.3532  -51.9590    6.3037 H   0  0  0  0  0  0  0  0  0  0  0  0
   -3.8479  -49.9194    4.9751 H   0  0  0  0  0  0  0  0  0  0  0  0
   -2.0937  -48.2109    4.6045 H   0  0  0  0  0  0  0  0  0  0  0  0
    1.7661  -47.1413    4.4546 H   0  0  0  0  0  0  0  0  0  0  0  0
   -0.0173  -46.9597    4.3398 H   0  0  0  0  0  0  0  0  0  0  0  0
    1.7696  -46.0760    6.6595 H   0  0  0  0  0  0  0  0  0  0  0  0
    0.9737  -45.0129    5.4499 H   0  0  0  0  0  0  0  0  0  0  0  0
   -0.5801  -46.8258    7.3588 H   0  0  0  0  0  0  0  0  0  0  0  0
   -0.1499  -45.1241    7.7404 H   0  0  0  0  0  0  0  0  0  0  0  0
   -5.7159  -43.8260    6.1257 H   0  0  0  0  0  0  0  0  0  0  0  0
   -3.4803  -44.1731    5.1106 H   0  0  0  0  0  0  0  0  0  0  0  0
   -2.1943  -46.2904    8.6344 H   0  0  0  0  0  0  0  0  0  0  0  0
   -7.2771  -44.1576    7.9911 H   0  0  0  0  0  0  0  0  0  0  0  0
   -7.7787  -45.1201   10.2313 H   0  0  0  0  0  0  0  0  0  0  0  0
   -6.0304  -46.4053   11.4541 H   0  0  0  0  0  0  0  0  0  0  0  0
   -3.7738  -46.7067   10.4498 H   0  0  0  0  0  0  0  0  0  0  0  0
  1  2  1  0  0  0  0
  2  3  1  0  0  0  0
  2  4  2  0  0  0  0
  4 11  1  0  0  0  0
  4 26  1  0  0  0  0
  5  6  1  0  0  0  0
  5 10  1  0  0  0  0
  5 26  2  0  0  0  0
  6  7  2  0  0  0  0
  7  8  1  0  0  0  0
  8  9  2  0  0  0  0
  9 10  1  0  0  0  0
 10 11  2  0  0  0  0
 11 12  1  0  0  0  0
 12 13  1  0  0  0  0
 13 14  1  0  0  0  0
 14 15  1  0  0  0  0
 15 16  1  0  0  0  0
 16 18  2  0  0  0  0
 16 19  1  0  0  0  0
 17 18  1  0  0  0  0
 17 21  2  0  0  0  0
 19 20  2  0  0  0  0
 20 21  1  0  0  0  0
 20 25  1  0  0  0  0
 21 22  1  0  0  0  0
 22 23  2  0  0  0  0
 23 24  1  0  0  0  0
 24 25  2  0  0  0  0
  1 27  1  0  0  0  0
  3 28  1  0  0  0  0
  6 29  1  0  0  0  0
  7 30  1  0  0  0  0
  8 31  1  0  0  0  0
  9 32  1  0  0  0  0
 12 33  1  0  0  0  0
 12 34  1  0  0  0  0
 13 35  1  0  0  0  0
 13 36  1  0  0  0  0
 14 37  1  0  0  0  0
 14 38  1  0  0  0  0
 17 39  1  0  0  0  0
 18 40  1  0  0  0  0
 19 41  1  0  0  0  0
 22 42  1  0  0  0  0
 23 43  1  0  0  0  0
 24 44  1  0  0  0  0
 25 45  1  0  0  0  0
M  END
> <r_user_dG.exp>
-7.03469617128338

$$$$
