31
  -OEChem-05192314073D
 Structure written by MMmdl.
 42 44  0     0  0  0  0  0  0999 V2000
    3.5641  -47.7534    6.2143 O   0  0  0  0  0  0  0  0  0  0  0  0
    3.0122  -48.7554    6.7454 C   0  0  0  0  0  0  0  0  0  0  0  0
    3.6123  -49.5070    7.5449 O   0  0  0  0  0  0  0  0  0  0  0  0
    1.5969  -49.0608    6.3966 C   0  0  0  0  0  0  0  0  0  0  0  0
   -0.2442  -50.4134    6.4643 C   0  0  0  0  0  0  0  0  0  0  0  0
   -1.2037  -51.4312    6.6788 C   0  0  0  0  0  0  0  0  0  0  0  0
   -2.5043  -51.2795    6.1613 C   0  0  0  0  0  0  0  0  0  0  0  0
   -2.8377  -50.1268    5.4226 C   0  0  0  0  0  0  0  0  0  0  0  0
   -1.8793  -49.1151    5.2073 C   0  0  0  0  0  0  0  0  0  0  0  0
   -0.5657  -49.2279    5.7279 C   0  0  0  0  0  0  0  0  0  0  0  0
    0.6141  -48.3957    5.7009 C   0  0  0  0  0  0  0  0  0  0  0  0
    0.7301  -47.0351    5.0529 C   0  0  0  0  0  0  0  0  0  0  0  0
    0.7552  -45.8921    6.0871 C   0  0  0  0  0  0  0  0  0  0  0  0
   -0.5322  -45.7699    6.9086 C   0  0  0  0  0  0  0  0  0  0  0  0
   -1.5383  -45.2373    6.0607 O   0  0  0  0  0  0  0  0  0  0  0  0
   -2.7966  -45.0645    6.5801 C   0  0  0  0  0  0  0  0  0  0  0  0
   -3.2770  -45.7162    7.7440 C   0  0  0  0  0  0  0  0  0  0  0  0
   -4.5937  -45.5045    8.1936 C   0  0  0  0  0  0  0  0  0  0  0  0
   -5.4351  -44.6171    7.4875 C   0  0  0  0  0  0  0  0  0  0  0  0
   -4.9679  -43.9681    6.3316 C   0  0  0  0  0  0  0  0  0  0  0  0
   -3.6549  -44.1973    5.8830 C   0  0  0  0  0  0  0  0  0  0  0  0
    1.0786  -50.2786    6.8435 N   0  0  0  0  0  0  0  0  0  0  0  0
   -5.7749  -45.4084   10.2138 F   0  0  0  0  0  0  0  0  0  0  0  0
   -5.1355  -46.2506    9.4023 C   0  0  0  0  0  0  0  0  0  0  0  0
   -5.9929  -47.1821    8.9848 F   0  0  0  0  0  0  0  0  0  0  0  0
   -4.1591  -46.8446   10.0908 F   0  0  0  0  0  0  0  0  0  0  0  0
    4.5021  -49.1967    7.6648 H   0  0  0  0  0  0  0  0  0  0  0  0
   -0.9401  -52.3183    7.2356 H   0  0  0  0  0  0  0  0  0  0  0  0
   -3.2460  -52.0462    6.3304 H   0  0  0  0  0  0  0  0  0  0  0  0
   -3.8334  -50.0175    5.0188 H   0  0  0  0  0  0  0  0  0  0  0  0
   -2.1507  -48.2396    4.6361 H   0  0  0  0  0  0  0  0  0  0  0  0
    1.6600  -47.0013    4.4663 H   0  0  0  0  0  0  0  0  0  0  0  0
   -0.1308  -46.8877    4.3842 H   0  0  0  0  0  0  0  0  0  0  0  0
    1.5920  -46.0692    6.7788 H   0  0  0  0  0  0  0  0  0  0  0  0
    0.9160  -44.9445    5.5522 H   0  0  0  0  0  0  0  0  0  0  0  0
   -0.8377  -46.7610    7.2753 H   0  0  0  0  0  0  0  0  0  0  0  0
   -0.3684  -45.0972    7.7634 H   0  0  0  0  0  0  0  0  0  0  0  0
   -2.6259  -46.3819    8.2911 H   0  0  0  0  0  0  0  0  0  0  0  0
   -6.4410  -44.4365    7.8368 H   0  0  0  0  0  0  0  0  0  0  0  0
   -5.6156  -43.2951    5.7893 H   0  0  0  0  0  0  0  0  0  0  0  0
   -3.3017  -43.7005    4.9914 H   0  0  0  0  0  0  0  0  0  0  0  0
    1.5931  -50.9589    7.3655 H   0  0  0  0  0  0  0  0  0  0  0  0
  1  2  2  0  0  0  0
  2  3  1  0  0  0  0
  2  4  1  0  0  0  0
  4 11  2  0  0  0  0
  4 22  1  0  0  0  0
  5  6  2  0  0  0  0
  5 10  1  0  0  0  0
  5 22  1  0  0  0  0
  6  7  1  0  0  0  0
  7  8  2  0  0  0  0
  8  9  1  0  0  0  0
  9 10  2  0  0  0  0
 10 11  1  0  0  0  0
 11 12  1  0  0  0  0
 12 13  1  0  0  0  0
 13 14  1  0  0  0  0
 14 15  1  0  0  0  0
 15 16  1  0  0  0  0
 16 17  2  0  0  0  0
 16 21  1  0  0  0  0
 17 18  1  0  0  0  0
 18 19  2  0  0  0  0
 18 24  1  0  0  0  0
 19 20  1  0  0  0  0
 20 21  2  0  0  0  0
 23 24  1  0  0  0  0
 24 25  1  0  0  0  0
 24 26  1  0  0  0  0
  3 27  1  0  0  0  0
  6 28  1  0  0  0  0
  7 29  1  0  0  0  0
  8 30  1  0  0  0  0
  9 31  1  0  0  0  0
 12 32  1  0  0  0  0
 12 33  1  0  0  0  0
 13 34  1  0  0  0  0
 13 35  1  0  0  0  0
 14 36  1  0  0  0  0
 14 37  1  0  0  0  0
 17 38  1  0  0  0  0
 19 39  1  0  0  0  0
 20 40  1  0  0  0  0
 21 41  1  0  0  0  0
 22 42  1  0  0  0  0
M  END
> <r_user_dG.exp>
-7.91951688961355

$$$$
31
  -OEChem-05192314073D
 Structure written by MMmdl.
 42 44  0     1  0  0  0  0  0999 V2000
    3.5641  -47.7534    6.2143 O   0  0  0  0  0  0  0  0  0  0  0  0
    3.0122  -48.7554    6.7454 C   0  0  0  0  0  0  0  0  0  0  0  0
    3.6123  -49.5070    7.5449 O   0  0  0  0  0  0  0  0  0  0  0  0
    1.5969  -49.0608    6.3966 C   0  0  0  0  0  0  0  0  0  0  0  0
   -0.2442  -50.4134    6.4643 C   0  0  0  0  0  0  0  0  0  0  0  0
   -1.2037  -51.4312    6.6788 C   0  0  0  0  0  0  0  0  0  0  0  0
   -2.5043  -51.2795    6.1613 C   0  0  0  0  0  0  0  0  0  0  0  0
   -2.8377  -50.1268    5.4226 C   0  0  0  0  0  0  0  0  0  0  0  0
   -1.8793  -49.1151    5.2073 C   0  0  0  0  0  0  0  0  0  0  0  0
   -0.5657  -49.2279    5.7279 C   0  0  0  0  0  0  0  0  0  0  0  0
    0.6141  -48.3957    5.7009 C   0  0  3  0  0  0  0  0  0  0  0  0
    0.7301  -47.0351    5.0529 C   0  0  0  0  0  0  0  0  0  0  0  0
    0.7552  -45.8921    6.0871 C   0  0  0  0  0  0  0  0  0  0  0  0
   -0.5322  -45.7699    6.9086 C   0  0  0  0  0  0  0  0  0  0  0  0
   -1.5383  -45.2373    6.0607 O   0  0  0  0  0  0  0  0  0  0  0  0
   -2.7966  -45.0645    6.5801 C   0  0  0  0  0  0  0  0  0  0  0  0
   -3.2770  -45.7162    7.7440 C   0  0  0  0  0  0  0  0  0  0  0  0
   -4.5937  -45.5045    8.1936 C   0  0  0  0  0  0  0  0  0  0  0  0
   -5.4351  -44.6171    7.4875 C   0  0  0  0  0  0  0  0  0  0  0  0
   -4.9679  -43.9681    6.3316 C   0  0  0  0  0  0  0  0  0  0  0  0
   -3.6549  -44.1973    5.8830 C   0  0  0  0  0  0  0  0  0  0  0  0
    1.0786  -50.2786    6.8435 N   0  0  0  0  0  0  0  0  0  0  0  0
   -5.7749  -45.4084   10.2138 F   0  0  0  0  0  0  0  0  0  0  0  0
   -5.1355  -46.2506    9.4023 C   0  0  0  0  0  0  0  0  0  0  0  0
   -5.9929  -47.1821    8.9848 F   0  0  0  0  0  0  0  0  0  0  0  0
   -4.1591  -46.8446   10.0908 F   0  0  0  0  0  0  0  0  0  0  0  0
    4.5021  -49.1967    7.6648 H   0  0  0  0  0  0  0  0  0  0  0  0
   -0.9401  -52.3183    7.2356 H   0  0  0  0  0  0  0  0  0  0  0  0
   -3.2460  -52.0462    6.3304 H   0  0  0  0  0  0  0  0  0  0  0  0
   -3.8334  -50.0175    5.0188 H   0  0  0  0  0  0  0  0  0  0  0  0
   -2.1507  -48.2396    4.6361 H   0  0  0  0  0  0  0  0  0  0  0  0
    0.9401  -48.8760    4.7665 H   0  0  0  0  0  0  0  0  0  0  0  0
    1.6600  -47.0013    4.4663 H   0  0  0  0  0  0  0  0  0  0  0  0
   -0.1308  -46.8877    4.3842 H   0  0  0  0  0  0  0  0  0  0  0  0
    1.5920  -46.0692    6.7788 H   0  0  0  0  0  0  0  0  0  0  0  0
    0.9160  -44.9445    5.5522 H   0  0  0  0  0  0  0  0  0  0  0  0
   -0.8377  -46.7610    7.2753 H   0  0  0  0  0  0  0  0  0  0  0  0
   -0.3684  -45.0972    7.7634 H   0  0  0  0  0  0  0  0  0  0  0  0
   -2.6259  -46.3819    8.2911 H   0  0  0  0  0  0  0  0  0  0  0  0
   -6.4410  -44.4365    7.8368 H   0  0  0  0  0  0  0  0  0  0  0  0
   -5.6156  -43.2951    5.7893 H   0  0  0  0  0  0  0  0  0  0  0  0
   -3.3017  -43.7005    4.9914 H   0  0  0  0  0  0  0  0  0  0  0  0
  1  2  2  0  0  0  0
  2  3  1  0  0  0  0
  2  4  1  0  0  0  0
  4 11  1  0  0  0  0
  4 22  2  0  0  0  0
  5  6  2  0  0  0  0
  5 10  1  0  0  0  0
  5 22  1  0  0  0  0
  6  7  1  0  0  0  0
  7  8  2  0  0  0  0
  8  9  1  0  0  0  0
  9 10  2  0  0  0  0
 10 11  1  0  0  0  0
 11 12  1  0  0  0  0
 12 13  1  0  0  0  0
 13 14  1  0  0  0  0
 14 15  1  0  0  0  0
 15 16  1  0  0  0  0
 16 17  2  0  0  0  0
 16 21  1  0  0  0  0
 17 18  1  0  0  0  0
 18 19  2  0  0  0  0
 18 24  1  0  0  0  0
 19 20  1  0  0  0  0
 20 21  2  0  0  0  0
 23 24  1  0  0  0  0
 24 25  1  0  0  0  0
 24 26  1  0  0  0  0
  3 27  1  0  0  0  0
  6 28  1  0  0  0  0
  7 29  1  0  0  0  0
  8 30  1  0  0  0  0
  9 31  1  0  0  0  0
 11 32  1  0  0  0  0
 12 33  1  0  0  0  0
 12 34  1  0  0  0  0
 13 35  1  0  0  0  0
 13 36  1  0  0  0  0
 14 37  1  0  0  0  0
 14 38  1  0  0  0  0
 17 39  1  0  0  0  0
 19 40  1  0  0  0  0
 20 41  1  0  0  0  0
 21 42  1  0  0  0  0
M  END
> <r_user_dG.exp>
-7.91951688961355

$$$$
31
  -OEChem-05192314073D
 Structure written by MMmdl.
 42 44  0     1  0  0  0  0  0999 V2000
    3.5641  -47.7534    6.2143 O   0  0  0  0  0  0  0  0  0  0  0  0
    3.0122  -48.7554    6.7454 C   0  0  0  0  0  0  0  0  0  0  0  0
    3.6123  -49.5070    7.5449 O   0  0  0  0  0  0  0  0  0  0  0  0
    1.5969  -49.0608    6.3966 C   0  0  3  0  0  0  0  0  0  0  0  0
   -0.2442  -50.4134    6.4643 C   0  0  0  0  0  0  0  0  0  0  0  0
   -1.2037  -51.4312    6.6788 C   0  0  0  0  0  0  0  0  0  0  0  0
   -2.5043  -51.2795    6.1613 C   0  0  0  0  0  0  0  0  0  0  0  0
   -2.8377  -50.1268    5.4226 C   0  0  0  0  0  0  0  0  0  0  0  0
   -1.8793  -49.1151    5.2073 C   0  0  0  0  0  0  0  0  0  0  0  0
   -0.5657  -49.2279    5.7279 C   0  0  0  0  0  0  0  0  0  0  0  0
    0.6141  -48.3957    5.7009 C   0  0  0  0  0  0  0  0  0  0  0  0
    0.7301  -47.0351    5.0529 C   0  0  0  0  0  0  0  0  0  0  0  0
    0.7552  -45.8921    6.0871 C   0  0  0  0  0  0  0  0  0  0  0  0
   -0.5322  -45.7699    6.9086 C   0  0  0  0  0  0  0  0  0  0  0  0
   -1.5383  -45.2373    6.0607 O   0  0  0  0  0  0  0  0  0  0  0  0
   -2.7966  -45.0645    6.5801 C   0  0  0  0  0  0  0  0  0  0  0  0
   -3.2770  -45.7162    7.7440 C   0  0  0  0  0  0  0  0  0  0  0  0
   -4.5937  -45.5045    8.1936 C   0  0  0  0  0  0  0  0  0  0  0  0
   -5.4351  -44.6171    7.4875 C   0  0  0  0  0  0  0  0  0  0  0  0
   -4.9679  -43.9681    6.3316 C   0  0  0  0  0  0  0  0  0  0  0  0
   -3.6549  -44.1973    5.8830 C   0  0  0  0  0  0  0  0  0  0  0  0
    1.0786  -50.2786    6.8435 N   0  0  0  0  0  0  0  0  0  0  0  0
   -5.7749  -45.4084   10.2138 F   0  0  0  0  0  0  0  0  0  0  0  0
   -5.1355  -46.2506    9.4023 C   0  0  0  0  0  0  0  0  0  0  0  0
   -5.9929  -47.1821    8.9848 F   0  0  0  0  0  0  0  0  0  0  0  0
   -4.1591  -46.8446   10.0908 F   0  0  0  0  0  0  0  0  0  0  0  0
    4.5021  -49.1967    7.6648 H   0  0  0  0  0  0  0  0  0  0  0  0
    1.9299  -49.5434    5.4659 H   0  0  0  0  0  0  0  0  0  0  0  0
   -0.9401  -52.3183    7.2356 H   0  0  0  0  0  0  0  0  0  0  0  0
   -3.2460  -52.0462    6.3304 H   0  0  0  0  0  0  0  0  0  0  0  0
   -3.8334  -50.0175    5.0188 H   0  0  0  0  0  0  0  0  0  0  0  0
   -2.1507  -48.2396    4.6361 H   0  0  0  0  0  0  0  0  0  0  0  0
    1.6600  -47.0013    4.4663 H   0  0  0  0  0  0  0  0  0  0  0  0
   -0.1308  -46.8877    4.3842 H   0  0  0  0  0  0  0  0  0  0  0  0
    1.5920  -46.0692    6.7788 H   0  0  0  0  0  0  0  0  0  0  0  0
    0.9160  -44.9445    5.5522 H   0  0  0  0  0  0  0  0  0  0  0  0
   -0.8377  -46.7610    7.2753 H   0  0  0  0  0  0  0  0  0  0  0  0
   -0.3684  -45.0972    7.7634 H   0  0  0  0  0  0  0  0  0  0  0  0
   -2.6259  -46.3819    8.2911 H   0  0  0  0  0  0  0  0  0  0  0  0
   -6.4410  -44.4365    7.8368 H   0  0  0  0  0  0  0  0  0  0  0  0
   -5.6156  -43.2951    5.7893 H   0  0  0  0  0  0  0  0  0  0  0  0
   -3.3017  -43.7005    4.9914 H   0  0  0  0  0  0  0  0  0  0  0  0
  1  2  2  0  0  0  0
  2  3  1  0  0  0  0
  2  4  1  0  0  0  0
  4 11  1  0  0  0  0
  4 22  1  0  0  0  0
  5  6  1  0  0  0  0
  5 10  1  0  0  0  0
  5 22  2  0  0  0  0
  6  7  2  0  0  0  0
  7  8  1  0  0  0  0
  8  9  2  0  0  0  0
  9 10  1  0  0  0  0
 10 11  2  0  0  0  0
 11 12  1  0  0  0  0
 12 13  1  0  0  0  0
 13 14  1  0  0  0  0
 14 15  1  0  0  0  0
 15 16  1  0  0  0  0
 16 17  2  0  0  0  0
 16 21  1  0  0  0  0
 17 18  1  0  0  0  0
 18 19  2  0  0  0  0
 18 24  1  0  0  0  0
 19 20  1  0  0  0  0
 20 21  2  0  0  0  0
 23 24  1  0  0  0  0
 24 25  1  0  0  0  0
 24 26  1  0  0  0  0
  3 27  1  0  0  0  0
  4 28  1  0  0  0  0
  6 29  1  0  0  0  0
  7 30  1  0  0  0  0
  8 31  1  0  0  0  0
  9 32  1  0  0  0  0
 12 33  1  0  0  0  0
 12 34  1  0  0  0  0
 13 35  1  0  0  0  0
 13 36  1  0  0  0  0
 14 37  1  0  0  0  0
 14 38  1  0  0  0  0
 17 39  1  0  0  0  0
 19 40  1  0  0  0  0
 20 41  1  0  0  0  0
 21 42  1  0  0  0  0
M  END
> <r_user_dG.exp>
-7.91951688961355

$$$$
31
  -OEChem-05192314073D
 Structure written by MMmdl.
 42 44  0     1  0  0  0  0  0999 V2000
    3.5641  -47.7534    6.2143 O   0  0  0  0  0  0  0  0  0  0  0  0
    3.0122  -48.7554    6.7454 C   0  0  0  0  0  0  0  0  0  0  0  0
    3.6123  -49.5070    7.5449 O   0  0  0  0  0  0  0  0  0  0  0  0
    1.5969  -49.0608    6.3966 C   0  0  0  0  0  0  0  0  0  0  0  0
   -0.2442  -50.4134    6.4643 C   0  0  0  0  0  0  0  0  0  0  0  0
   -1.2037  -51.4312    6.6788 C   0  0  0  0  0  0  0  0  0  0  0  0
   -2.5043  -51.2795    6.1613 C   0  0  0  0  0  0  0  0  0  0  0  0
   -2.8377  -50.1268    5.4226 C   0  0  0  0  0  0  0  0  0  0  0  0
   -1.8793  -49.1151    5.2073 C   0  0  0  0  0  0  0  0  0  0  0  0
   -0.5657  -49.2279    5.7279 C   0  0  3  0  0  0  0  0  0  0  0  0
    0.6141  -48.3957    5.7009 C   0  0  0  0  0  0  0  0  0  0  0  0
    0.7301  -47.0351    5.0529 C   0  0  0  0  0  0  0  0  0  0  0  0
    0.7552  -45.8921    6.0871 C   0  0  0  0  0  0  0  0  0  0  0  0
   -0.5322  -45.7699    6.9086 C   0  0  0  0  0  0  0  0  0  0  0  0
   -1.5383  -45.2373    6.0607 O   0  0  0  0  0  0  0  0  0  0  0  0
   -2.7966  -45.0645    6.5801 C   0  0  0  0  0  0  0  0  0  0  0  0
   -3.2770  -45.7162    7.7440 C   0  0  0  0  0  0  0  0  0  0  0  0
   -4.5937  -45.5045    8.1936 C   0  0  0  0  0  0  0  0  0  0  0  0
   -5.4351  -44.6171    7.4875 C   0  0  0  0  0  0  0  0  0  0  0  0
   -4.9679  -43.9681    6.3316 C   0  0  0  0  0  0  0  0  0  0  0  0
   -3.6549  -44.1973    5.8830 C   0  0  0  0  0  0  0  0  0  0  0  0
    1.0786  -50.2786    6.8435 N   0  0  0  0  0  0  0  0  0  0  0  0
   -5.7749  -45.4084   10.2138 F   0  0  0  0  0  0  0  0  0  0  0  0
   -5.1355  -46.2506    9.4023 C   0  0  0  0  0  0  0  0  0  0  0  0
   -5.9929  -47.1821    8.9848 F   0  0  0  0  0  0  0  0  0  0  0  0
   -4.1591  -46.8446   10.0908 F   0  0  0  0  0  0  0  0  0  0  0  0
    4.5021  -49.1967    7.6648 H   0  0  0  0  0  0  0  0  0  0  0  0
   -0.9401  -52.3183    7.2356 H   0  0  0  0  0  0  0  0  0  0  0  0
   -3.2460  -52.0462    6.3304 H   0  0  0  0  0  0  0  0  0  0  0  0
   -3.8334  -50.0175    5.0188 H   0  0  0  0  0  0  0  0  0  0  0  0
   -2.1507  -48.2396    4.6361 H   0  0  0  0  0  0  0  0  0  0  0  0
   -0.8911  -48.7378    6.6574 H   0  0  0  0  0  0  0  0  0  0  0  0
    1.6600  -47.0013    4.4663 H   0  0  0  0  0  0  0  0  0  0  0  0
   -0.1308  -46.8877    4.3842 H   0  0  0  0  0  0  0  0  0  0  0  0
    1.5920  -46.0692    6.7788 H   0  0  0  0  0  0  0  0  0  0  0  0
    0.9160  -44.9445    5.5522 H   0  0  0  0  0  0  0  0  0  0  0  0
   -0.8377  -46.7610    7.2753 H   0  0  0  0  0  0  0  0  0  0  0  0
   -0.3684  -45.0972    7.7634 H   0  0  0  0  0  0  0  0  0  0  0  0
   -2.6259  -46.3819    8.2911 H   0  0  0  0  0  0  0  0  0  0  0  0
   -6.4410  -44.4365    7.8368 H   0  0  0  0  0  0  0  0  0  0  0  0
   -5.6156  -43.2951    5.7893 H   0  0  0  0  0  0  0  0  0  0  0  0
   -3.3017  -43.7005    4.9914 H   0  0  0  0  0  0  0  0  0  0  0  0
  1  2  2  0  0  0  0
  2  3  1  0  0  0  0
  2  4  1  0  0  0  0
  4 11  2  0  0  0  0
  4 22  1  0  0  0  0
  5  6  1  0  0  0  0
  5 10  1  0  0  0  0
  5 22  2  0  0  0  0
  6  7  2  0  0  0  0
  7  8  1  0  0  0  0
  8  9  2  0  0  0  0
  9 10  1  0  0  0  0
 10 11  1  0  0  0  0
 11 12  1  0  0  0  0
 12 13  1  0  0  0  0
 13 14  1  0  0  0  0
 14 15  1  0  0  0  0
 15 16  1  0  0  0  0
 16 17  2  0  0  0  0
 16 21  1  0  0  0  0
 17 18  1  0  0  0  0
 18 19  2  0  0  0  0
 18 24  1  0  0  0  0
 19 20  1  0  0  0  0
 20 21  2  0  0  0  0
 23 24  1  0  0  0  0
 24 25  1  0  0  0  0
 24 26  1  0  0  0  0
  3 27  1  0  0  0  0
  6 28  1  0  0  0  0
  7 29  1  0  0  0  0
  8 30  1  0  0  0  0
  9 31  1  0  0  0  0
 10 32  1  0  0  0  0
 12 33  1  0  0  0  0
 12 34  1  0  0  0  0
 13 35  1  0  0  0  0
 13 36  1  0  0  0  0
 14 37  1  0  0  0  0
 14 38  1  0  0  0  0
 17 39  1  0  0  0  0
 19 40  1  0  0  0  0
 20 41  1  0  0  0  0
 21 42  1  0  0  0  0
M  END
> <r_user_dG.exp>
-7.91951688961355

$$$$
31
  -OEChem-05192314073D
 Structure written by MMmdl.
 42 44  0     1  0  0  0  0  0999 V2000
    3.5641  -47.7534    6.2143 O   0  0  0  0  0  0  0  0  0  0  0  0
    3.0122  -48.7554    6.7454 C   0  0  0  0  0  0  0  0  0  0  0  0
    3.6123  -49.5070    7.5449 O   0  0  0  0  0  0  0  0  0  0  0  0
    1.5969  -49.0608    6.3966 C   0  0  0  0  0  0  0  0  0  0  0  0
   -0.2442  -50.4134    6.4643 C   0  0  3  0  0  0  0  0  0  0  0  0
   -1.2037  -51.4312    6.6788 C   0  0  0  0  0  0  0  0  0  0  0  0
   -2.5043  -51.2795    6.1613 C   0  0  0  0  0  0  0  0  0  0  0  0
   -2.8377  -50.1268    5.4226 C   0  0  0  0  0  0  0  0  0  0  0  0
   -1.8793  -49.1151    5.2073 C   0  0  0  0  0  0  0  0  0  0  0  0
   -0.5657  -49.2279    5.7279 C   0  0  0  0  0  0  0  0  0  0  0  0
    0.6141  -48.3957    5.7009 C   0  0  0  0  0  0  0  0  0  0  0  0
    0.7301  -47.0351    5.0529 C   0  0  0  0  0  0  0  0  0  0  0  0
    0.7552  -45.8921    6.0871 C   0  0  0  0  0  0  0  0  0  0  0  0
   -0.5322  -45.7699    6.9086 C   0  0  0  0  0  0  0  0  0  0  0  0
   -1.5383  -45.2373    6.0607 O   0  0  0  0  0  0  0  0  0  0  0  0
   -2.7966  -45.0645    6.5801 C   0  0  0  0  0  0  0  0  0  0  0  0
   -3.2770  -45.7162    7.7440 C   0  0  0  0  0  0  0  0  0  0  0  0
   -4.5937  -45.5045    8.1936 C   0  0  0  0  0  0  0  0  0  0  0  0
   -5.4351  -44.6171    7.4875 C   0  0  0  0  0  0  0  0  0  0  0  0
   -4.9679  -43.9681    6.3316 C   0  0  0  0  0  0  0  0  0  0  0  0
   -3.6549  -44.1973    5.8830 C   0  0  0  0  0  0  0  0  0  0  0  0
    1.0786  -50.2786    6.8435 N   0  0  0  0  0  0  0  0  0  0  0  0
   -5.7749  -45.4084   10.2138 F   0  0  0  0  0  0  0  0  0  0  0  0
   -5.1355  -46.2506    9.4023 C   0  0  0  0  0  0  0  0  0  0  0  0
   -5.9929  -47.1821    8.9848 F   0  0  0  0  0  0  0  0  0  0  0  0
   -4.1591  -46.8446   10.0908 F   0  0  0  0  0  0  0  0  0  0  0  0
    4.5021  -49.1967    7.6648 H   0  0  0  0  0  0  0  0  0  0  0  0
    0.0721  -50.9067    5.5334 H   0  0  0  0  0  0  0  0  0  0  0  0
   -0.9401  -52.3183    7.2356 H   0  0  0  0  0  0  0  0  0  0  0  0
   -3.2460  -52.0462    6.3304 H   0  0  0  0  0  0  0  0  0  0  0  0
   -3.8334  -50.0175    5.0188 H   0  0  0  0  0  0  0  0  0  0  0  0
   -2.1507  -48.2396    4.6361 H   0  0  0  0  0  0  0  0  0  0  0  0
    1.6600  -47.0013    4.4663 H   0  0  0  0  0  0  0  0  0  0  0  0
   -0.1308  -46.8877    4.3842 H   0  0  0  0  0  0  0  0  0  0  0  0
    1.5920  -46.0692    6.7788 H   0  0  0  0  0  0  0  0  0  0  0  0
    0.9160  -44.9445    5.5522 H   0  0  0  0  0  0  0  0  0  0  0  0
   -0.8377  -46.7610    7.2753 H   0  0  0  0  0  0  0  0  0  0  0  0
   -0.3684  -45.0972    7.7634 H   0  0  0  0  0  0  0  0  0  0  0  0
   -2.6259  -46.3819    8.2911 H   0  0  0  0  0  0  0  0  0  0  0  0
   -6.4410  -44.4365    7.8368 H   0  0  0  0  0  0  0  0  0  0  0  0
   -5.6156  -43.2951    5.7893 H   0  0  0  0  0  0  0  0  0  0  0  0
   -3.3017  -43.7005    4.9914 H   0  0  0  0  0  0  0  0  0  0  0  0
  1  2  2  0  0  0  0
  2  3  1  0  0  0  0
  2  4  1  0  0  0  0
  4 11  1  0  0  0  0
  4 22  2  0  0  0  0
  5  6  1  0  0  0  0
  5 10  1  0  0  0  0
  5 22  1  0  0  0  0
  6  7  2  0  0  0  0
  7  8  1  0  0  0  0
  8  9  2  0  0  0  0
  9 10  1  0  0  0  0
 10 11  2  0  0  0  0
 11 12  1  0  0  0  0
 12 13  1  0  0  0  0
 13 14  1  0  0  0  0
 14 15  1  0  0  0  0
 15 16  1  0  0  0  0
 16 17  2  0  0  0  0
 16 21  1  0  0  0  0
 17 18  1  0  0  0  0
 18 19  2  0  0  0  0
 18 24  1  0  0  0  0
 19 20  1  0  0  0  0
 20 21  2  0  0  0  0
 23 24  1  0  0  0  0
 24 25  1  0  0  0  0
 24 26  1  0  0  0  0
  3 27  1  0  0  0  0
  5 28  1  0  0  0  0
  6 29  1  0  0  0  0
  7 30  1  0  0  0  0
  8 31  1  0  0  0  0
  9 32  1  0  0  0  0
 12 33  1  0  0  0  0
 12 34  1  0  0  0  0
 13 35  1  0  0  0  0
 13 36  1  0  0  0  0
 14 37  1  0  0  0  0
 14 38  1  0  0  0  0
 17 39  1  0  0  0  0
 19 40  1  0  0  0  0
 20 41  1  0  0  0  0
 21 42  1  0  0  0  0
M  END
> <r_user_dG.exp>
-7.91951688961355

$$$$
31
  -OEChem-05192314073D
 Structure written by MMmdl.
 42 44  0     0  0  0  0  0  0999 V2000
    3.5641  -47.7534    6.2143 O   0  0  0  0  0  0  0  0  0  0  0  0
    3.0122  -48.7554    6.7454 C   0  0  0  0  0  0  0  0  0  0  0  0
    3.6123  -49.5070    7.5449 O   0  0  0  0  0  0  0  0  0  0  0  0
    1.5969  -49.0608    6.3966 C   0  0  0  0  0  0  0  0  0  0  0  0
   -0.2442  -50.4134    6.4643 C   0  0  0  0  0  0  0  0  0  0  0  0
   -1.2037  -51.4312    6.6788 C   0  0  0  0  0  0  0  0  0  0  0  0
   -2.5043  -51.2795    6.1613 C   0  0  0  0  0  0  0  0  0  0  0  0
   -2.8377  -50.1268    5.4226 C   0  0  0  0  0  0  0  0  0  0  0  0
   -1.8793  -49.1151    5.2073 C   0  0  0  0  0  0  0  0  0  0  0  0
   -0.5657  -49.2279    5.7279 C   0  0  0  0  0  0  0  0  0  0  0  0
    0.6141  -48.3957    5.7009 C   0  0  0  0  0  0  0  0  0  0  0  0
    0.7301  -47.0351    5.0529 C   0  0  0  0  0  0  0  0  0  0  0  0
    0.7552  -45.8921    6.0871 C   0  0  0  0  0  0  0  0  0  0  0  0
   -0.5322  -45.7699    6.9086 C   0  0  0  0  0  0  0  0  0  0  0  0
   -1.5383  -45.2373    6.0607 O   0  0  0  0  0  0  0  0  0  0  0  0
   -2.7966  -45.0645    6.5801 C   0  0  0  0  0  0  0  0  0  0  0  0
   -3.2770  -45.7162    7.7440 C   0  0  0  0  0  0  0  0  0  0  0  0
   -4.5937  -45.5045    8.1936 C   0  0  0  0  0  0  0  0  0  0  0  0
   -5.4351  -44.6171    7.4875 C   0  0  0  0  0  0  0  0  0  0  0  0
   -4.9679  -43.9681    6.3316 C   0  0  0  0  0  0  0  0  0  0  0  0
   -3.6549  -44.1973    5.8830 C   0  0  0  0  0  0  0  0  0  0  0  0
    1.0786  -50.2786    6.8435 N   0  0  0  0  0  0  0  0  0  0  0  0
   -5.7749  -45.4084   10.2138 F   0  0  0  0  0  0  0  0  0  0  0  0
   -5.1355  -46.2506    9.4023 C   0  0  0  0  0  0  0  0  0  0  0  0
   -5.9929  -47.1821    8.9848 F   0  0  0  0  0  0  0  0  0  0  0  0
   -4.1591  -46.8446   10.0908 F   0  0  0  0  0  0  0  0  0  0  0  0
    4.5021  -49.1967    7.6648 H   0  0  0  0  0  0  0  0  0  0  0  0
   -0.9401  -52.3183    7.2356 H   0  0  0  0  0  0  0  0  0  0  0  0
   -3.2460  -52.0462    6.3304 H   0  0  0  0  0  0  0  0  0  0  0  0
   -3.1616  -50.4712    4.4294 H   0  0  0  0  0  0  0  0  0  0  0  0
   -3.6848  -49.6539    5.9410 H   0  0  0  0  0  0  0  0  0  0  0  0
   -2.1507  -48.2396    4.6361 H   0  0  0  0  0  0  0  0  0  0  0  0
    1.6600  -47.0013    4.4663 H   0  0  0  0  0  0  0  0  0  0  0  0
   -0.1308  -46.8877    4.3842 H   0  0  0  0  0  0  0  0  0  0  0  0
    1.5920  -46.0692    6.7788 H   0  0  0  0  0  0  0  0  0  0  0  0
    0.9160  -44.9445    5.5522 H   0  0  0  0  0  0  0  0  0  0  0  0
   -0.8377  -46.7610    7.2753 H   0  0  0  0  0  0  0  0  0  0  0  0
   -0.3684  -45.0972    7.7634 H   0  0  0  0  0  0  0  0  0  0  0  0
   -2.6259  -46.3819    8.2911 H   0  0  0  0  0  0  0  0  0  0  0  0
   -6.4410  -44.4365    7.8368 H   0  0  0  0  0  0  0  0  0  0  0  0
   -5.6156  -43.2951    5.7893 H   0  0  0  0  0  0  0  0  0  0  0  0
   -3.3017  -43.7005    4.9914 H   0  0  0  0  0  0  0  0  0  0  0  0
  1  2  2  0  0  0  0
  2  3  1  0  0  0  0
  2  4  1  0  0  0  0
  4 11  2  0  0  0  0
  4 22  1  0  0  0  0
  5  6  1  0  0  0  0
  5 10  1  0  0  0  0
  5 22  2  0  0  0  0
  6  7  2  0  0  0  0
  7  8  1  0  0  0  0
  8  9  1  0  0  0  0
  9 10  2  0  0  0  0
 10 11  1  0  0  0  0
 11 12  1  0  0  0  0
 12 13  1  0  0  0  0
 13 14  1  0  0  0  0
 14 15  1  0  0  0  0
 15 16  1  0  0  0  0
 16 17  2  0  0  0  0
 16 21  1  0  0  0  0
 17 18  1  0  0  0  0
 18 19  2  0  0  0  0
 18 24  1  0  0  0  0
 19 20  1  0  0  0  0
 20 21  2  0  0  0  0
 23 24  1  0  0  0  0
 24 25  1  0  0  0  0
 24 26  1  0  0  0  0
  3 27  1  0  0  0  0
  6 28  1  0  0  0  0
  7 29  1  0  0  0  0
  8 30  1  0  0  0  0
  8 31  1  0  0  0  0
  9 32  1  0  0  0  0
 12 33  1  0  0  0  0
 12 34  1  0  0  0  0
 13 35  1  0  0  0  0
 13 36  1  0  0  0  0
 14 37  1  0  0  0  0
 14 38  1  0  0  0  0
 17 39  1  0  0  0  0
 19 40  1  0  0  0  0
 20 41  1  0  0  0  0
 21 42  1  0  0  0  0
M  END
> <r_user_dG.exp>
-7.91951688961355

$$$$
31
  -OEChem-05192314073D
 Structure written by MMmdl.
 42 44  0     0  0  0  0  0  0999 V2000
    3.5641  -47.7534    6.2143 O   0  0  0  0  0  0  0  0  0  0  0  0
    3.0122  -48.7554    6.7454 C   0  0  0  0  0  0  0  0  0  0  0  0
    3.6123  -49.5070    7.5449 O   0  0  0  0  0  0  0  0  0  0  0  0
    1.5969  -49.0608    6.3966 C   0  0  0  0  0  0  0  0  0  0  0  0
   -0.2442  -50.4134    6.4643 C   0  0  0  0  0  0  0  0  0  0  0  0
   -1.2037  -51.4312    6.6788 C   0  0  0  0  0  0  0  0  0  0  0  0
   -2.5043  -51.2795    6.1613 C   0  0  0  0  0  0  0  0  0  0  0  0
   -2.8377  -50.1268    5.4226 C   0  0  0  0  0  0  0  0  0  0  0  0
   -1.8793  -49.1151    5.2073 C   0  0  0  0  0  0  0  0  0  0  0  0
   -0.5657  -49.2279    5.7279 C   0  0  0  0  0  0  0  0  0  0  0  0
    0.6141  -48.3957    5.7009 C   0  0  0  0  0  0  0  0  0  0  0  0
    0.7301  -47.0351    5.0529 C   0  0  0  0  0  0  0  0  0  0  0  0
    0.7552  -45.8921    6.0871 C   0  0  0  0  0  0  0  0  0  0  0  0
   -0.5322  -45.7699    6.9086 C   0  0  0  0  0  0  0  0  0  0  0  0
   -1.5383  -45.2373    6.0607 O   0  0  0  0  0  0  0  0  0  0  0  0
   -2.7966  -45.0645    6.5801 C   0  0  0  0  0  0  0  0  0  0  0  0
   -3.2770  -45.7162    7.7440 C   0  0  0  0  0  0  0  0  0  0  0  0
   -4.5937  -45.5045    8.1936 C   0  0  0  0  0  0  0  0  0  0  0  0
   -5.4351  -44.6171    7.4875 C   0  0  0  0  0  0  0  0  0  0  0  0
   -4.9679  -43.9681    6.3316 C   0  0  0  0  0  0  0  0  0  0  0  0
   -3.6549  -44.1973    5.8830 C   0  0  0  0  0  0  0  0  0  0  0  0
    1.0786  -50.2786    6.8435 N   0  0  0  0  0  0  0  0  0  0  0  0
   -5.7749  -45.4084   10.2138 F   0  0  0  0  0  0  0  0  0  0  0  0
   -5.1355  -46.2506    9.4023 C   0  0  0  0  0  0  0  0  0  0  0  0
   -5.9929  -47.1821    8.9848 F   0  0  0  0  0  0  0  0  0  0  0  0
   -4.1591  -46.8446   10.0908 F   0  0  0  0  0  0  0  0  0  0  0  0
    4.5021  -49.1967    7.6648 H   0  0  0  0  0  0  0  0  0  0  0  0
   -0.9401  -52.3183    7.2356 H   0  0  0  0  0  0  0  0  0  0  0  0
   -2.6873  -52.1422    5.5038 H   0  0  0  0  0  0  0  0  0  0  0  0
   -3.1936  -51.3185    7.0177 H   0  0  0  0  0  0  0  0  0  0  0  0
   -3.8334  -50.0175    5.0188 H   0  0  0  0  0  0  0  0  0  0  0  0
   -2.1507  -48.2396    4.6361 H   0  0  0  0  0  0  0  0  0  0  0  0
    1.6600  -47.0013    4.4663 H   0  0  0  0  0  0  0  0  0  0  0  0
   -0.1308  -46.8877    4.3842 H   0  0  0  0  0  0  0  0  0  0  0  0
    1.5920  -46.0692    6.7788 H   0  0  0  0  0  0  0  0  0  0  0  0
    0.9160  -44.9445    5.5522 H   0  0  0  0  0  0  0  0  0  0  0  0
   -0.8377  -46.7610    7.2753 H   0  0  0  0  0  0  0  0  0  0  0  0
   -0.3684  -45.0972    7.7634 H   0  0  0  0  0  0  0  0  0  0  0  0
   -2.6259  -46.3819    8.2911 H   0  0  0  0  0  0  0  0  0  0  0  0
   -6.4410  -44.4365    7.8368 H   0  0  0  0  0  0  0  0  0  0  0  0
   -5.6156  -43.2951    5.7893 H   0  0  0  0  0  0  0  0  0  0  0  0
   -3.3017  -43.7005    4.9914 H   0  0  0  0  0  0  0  0  0  0  0  0
  1  2  2  0  0  0  0
  2  3  1  0  0  0  0
  2  4  1  0  0  0  0
  4 11  1  0  0  0  0
  4 22  2  0  0  0  0
  5  6  2  0  0  0  0
  5 10  1  0  0  0  0
  5 22  1  0  0  0  0
  6  7  1  0  0  0  0
  7  8  1  0  0  0  0
  8  9  2  0  0  0  0
  9 10  1  0  0  0  0
 10 11  2  0  0  0  0
 11 12  1  0  0  0  0
 12 13  1  0  0  0  0
 13 14  1  0  0  0  0
 14 15  1  0  0  0  0
 15 16  1  0  0  0  0
 16 17  2  0  0  0  0
 16 21  1  0  0  0  0
 17 18  1  0  0  0  0
 18 19  2  0  0  0  0
 18 24  1  0  0  0  0
 19 20  1  0  0  0  0
 20 21  2  0  0  0  0
 23 24  1  0  0  0  0
 24 25  1  0  0  0  0
 24 26  1  0  0  0  0
  3 27  1  0  0  0  0
  6 28  1  0  0  0  0
  7 29  1  0  0  0  0
  7 30  1  0  0  0  0
  8 31  1  0  0  0  0
  9 32  1  0  0  0  0
 12 33  1  0  0  0  0
 12 34  1  0  0  0  0
 13 35  1  0  0  0  0
 13 36  1  0  0  0  0
 14 37  1  0  0  0  0
 14 38  1  0  0  0  0
 17 39  1  0  0  0  0
 19 40  1  0  0  0  0
 20 41  1  0  0  0  0
 21 42  1  0  0  0  0
M  END
> <r_user_dG.exp>
-7.91951688961355

$$$$
31
  -OEChem-05192314073D
 Structure written by MMmdl.
 42 44  0     0  0  0  0  0  0999 V2000
    3.5641  -47.7534    6.2143 O   0  0  0  0  0  0  0  0  0  0  0  0
    3.0122  -48.7554    6.7454 C   0  0  0  0  0  0  0  0  0  0  0  0
    3.6123  -49.5070    7.5449 O   0  0  0  0  0  0  0  0  0  0  0  0
    1.5969  -49.0608    6.3966 C   0  0  0  0  0  0  0  0  0  0  0  0
   -0.2442  -50.4134    6.4643 C   0  0  0  0  0  0  0  0  0  0  0  0
   -1.2037  -51.4312    6.6788 C   0  0  0  0  0  0  0  0  0  0  0  0
   -2.5043  -51.2795    6.1613 C   0  0  0  0  0  0  0  0  0  0  0  0
   -2.8377  -50.1268    5.4226 C   0  0  0  0  0  0  0  0  0  0  0  0
   -1.8793  -49.1151    5.2073 C   0  0  0  0  0  0  0  0  0  0  0  0
   -0.5657  -49.2279    5.7279 C   0  0  0  0  0  0  0  0  0  0  0  0
    0.6141  -48.3957    5.7009 C   0  0  0  0  0  0  0  0  0  0  0  0
    0.7301  -47.0351    5.0529 C   0  0  0  0  0  0  0  0  0  0  0  0
    0.7552  -45.8921    6.0871 C   0  0  0  0  0  0  0  0  0  0  0  0
   -0.5322  -45.7699    6.9086 C   0  0  0  0  0  0  0  0  0  0  0  0
   -1.5383  -45.2373    6.0607 O   0  0  0  0  0  0  0  0  0  0  0  0
   -2.7966  -45.0645    6.5801 C   0  0  0  0  0  0  0  0  0  0  0  0
   -3.2770  -45.7162    7.7440 C   0  0  0  0  0  0  0  0  0  0  0  0
   -4.5937  -45.5045    8.1936 C   0  0  0  0  0  0  0  0  0  0  0  0
   -5.4351  -44.6171    7.4875 C   0  0  0  0  0  0  0  0  0  0  0  0
   -4.9679  -43.9681    6.3316 C   0  0  0  0  0  0  0  0  0  0  0  0
   -3.6549  -44.1973    5.8830 C   0  0  0  0  0  0  0  0  0  0  0  0
    1.0786  -50.2786    6.8435 N   0  0  0  0  0  0  0  0  0  0  0  0
   -5.7749  -45.4084   10.2138 F   0  0  0  0  0  0  0  0  0  0  0  0
   -5.1355  -46.2506    9.4023 C   0  0  0  0  0  0  0  0  0  0  0  0
   -5.9929  -47.1821    8.9848 F   0  0  0  0  0  0  0  0  0  0  0  0
   -4.1591  -46.8446   10.0908 F   0  0  0  0  0  0  0  0  0  0  0  0
    4.5021  -49.1967    7.6648 H   0  0  0  0  0  0  0  0  0  0  0  0
   -0.7927  -52.3547    6.2449 H   0  0  0  0  0  0  0  0  0  0  0  0
   -1.3048  -51.5510    7.7676 H   0  0  0  0  0  0  0  0  0  0  0  0
   -3.2460  -52.0462    6.3304 H   0  0  0  0  0  0  0  0  0  0  0  0
   -3.8334  -50.0175    5.0188 H   0  0  0  0  0  0  0  0  0  0  0  0
   -2.1507  -48.2396    4.6361 H   0  0  0  0  0  0  0  0  0  0  0  0
    1.6600  -47.0013    4.4663 H   0  0  0  0  0  0  0  0  0  0  0  0
   -0.1308  -46.8877    4.3842 H   0  0  0  0  0  0  0  0  0  0  0  0
    1.5920  -46.0692    6.7788 H   0  0  0  0  0  0  0  0  0  0  0  0
    0.9160  -44.9445    5.5522 H   0  0  0  0  0  0  0  0  0  0  0  0
   -0.8377  -46.7610    7.2753 H   0  0  0  0  0  0  0  0  0  0  0  0
   -0.3684  -45.0972    7.7634 H   0  0  0  0  0  0  0  0  0  0  0  0
   -2.6259  -46.3819    8.2911 H   0  0  0  0  0  0  0  0  0  0  0  0
   -6.4410  -44.4365    7.8368 H   0  0  0  0  0  0  0  0  0  0  0  0
   -5.6156  -43.2951    5.7893 H   0  0  0  0  0  0  0  0  0  0  0  0
   -3.3017  -43.7005    4.9914 H   0  0  0  0  0  0  0  0  0  0  0  0
  1  2  2  0  0  0  0
  2  3  1  0  0  0  0
  2  4  1  0  0  0  0
  4 11  2  0  0  0  0
  4 22  1  0  0  0  0
  5  6  1  0  0  0  0
  5 10  1  0  0  0  0
  5 22  2  0  0  0  0
  6  7  1  0  0  0  0
  7  8  2  0  0  0  0
  8  9  1  0  0  0  0
  9 10  2  0  0  0  0
 10 11  1  0  0  0  0
 11 12  1  0  0  0  0
 12 13  1  0  0  0  0
 13 14  1  0  0  0  0
 14 15  1  0  0  0  0
 15 16  1  0  0  0  0
 16 17  2  0  0  0  0
 16 21  1  0  0  0  0
 17 18  1  0  0  0  0
 18 19  2  0  0  0  0
 18 24  1  0  0  0  0
 19 20  1  0  0  0  0
 20 21  2  0  0  0  0
 23 24  1  0  0  0  0
 24 25  1  0  0  0  0
 24 26  1  0  0  0  0
  3 27  1  0  0  0  0
  6 28  1  0  0  0  0
  6 29  1  0  0  0  0
  7 30  1  0  0  0  0
  8 31  1  0  0  0  0
  9 32  1  0  0  0  0
 12 33  1  0  0  0  0
 12 34  1  0  0  0  0
 13 35  1  0  0  0  0
 13 36  1  0  0  0  0
 14 37  1  0  0  0  0
 14 38  1  0  0  0  0
 17 39  1  0  0  0  0
 19 40  1  0  0  0  0
 20 41  1  0  0  0  0
 21 42  1  0  0  0  0
M  END
> <r_user_dG.exp>
-7.91951688961355

$$$$
31
  -OEChem-05192314073D
 Structure written by MMmdl.
 42 44  0     0  0  0  0  0  0999 V2000
    3.5641  -47.7534    6.2143 O   0  0  0  0  0  0  0  0  0  0  0  0
    3.0122  -48.7554    6.7454 C   0  0  0  0  0  0  0  0  0  0  0  0
    3.6123  -49.5070    7.5449 O   0  0  0  0  0  0  0  0  0  0  0  0
    1.5969  -49.0608    6.3966 C   0  0  0  0  0  0  0  0  0  0  0  0
   -0.2442  -50.4134    6.4643 C   0  0  0  0  0  0  0  0  0  0  0  0
   -1.2037  -51.4312    6.6788 C   0  0  0  0  0  0  0  0  0  0  0  0
   -2.5043  -51.2795    6.1613 C   0  0  0  0  0  0  0  0  0  0  0  0
   -2.8377  -50.1268    5.4226 C   0  0  0  0  0  0  0  0  0  0  0  0
   -1.8793  -49.1151    5.2073 C   0  0  0  0  0  0  0  0  0  0  0  0
   -0.5657  -49.2279    5.7279 C   0  0  0  0  0  0  0  0  0  0  0  0
    0.6141  -48.3957    5.7009 C   0  0  0  0  0  0  0  0  0  0  0  0
    0.7301  -47.0351    5.0529 C   0  0  0  0  0  0  0  0  0  0  0  0
    0.7552  -45.8921    6.0871 C   0  0  0  0  0  0  0  0  0  0  0  0
   -0.5322  -45.7699    6.9086 C   0  0  0  0  0  0  0  0  0  0  0  0
   -1.5383  -45.2373    6.0607 O   0  0  0  0  0  0  0  0  0  0  0  0
   -2.7966  -45.0645    6.5801 C   0  0  0  0  0  0  0  0  0  0  0  0
   -3.2770  -45.7162    7.7440 C   0  0  0  0  0  0  0  0  0  0  0  0
   -4.5937  -45.5045    8.1936 C   0  0  0  0  0  0  0  0  0  0  0  0
   -5.4351  -44.6171    7.4875 C   0  0  0  0  0  0  0  0  0  0  0  0
   -4.9679  -43.9681    6.3316 C   0  0  0  0  0  0  0  0  0  0  0  0
   -3.6549  -44.1973    5.8830 C   0  0  0  0  0  0  0  0  0  0  0  0
    1.0786  -50.2786    6.8435 N   0  0  0  0  0  0  0  0  0  0  0  0
   -5.7749  -45.4084   10.2138 F   0  0  0  0  0  0  0  0  0  0  0  0
   -5.1355  -46.2506    9.4023 C   0  0  0  0  0  0  0  0  0  0  0  0
   -5.9929  -47.1821    8.9848 F   0  0  0  0  0  0  0  0  0  0  0  0
   -4.1591  -46.8446   10.0908 F   0  0  0  0  0  0  0  0  0  0  0  0
    4.5021  -49.1967    7.6648 H   0  0  0  0  0  0  0  0  0  0  0  0
   -0.9401  -52.3183    7.2356 H   0  0  0  0  0  0  0  0  0  0  0  0
   -3.2460  -52.0462    6.3304 H   0  0  0  0  0  0  0  0  0  0  0  0
   -3.8334  -50.0175    5.0188 H   0  0  0  0  0  0  0  0  0  0  0  0
   -1.7752  -49.0105    4.1172 H   0  0  0  0  0  0  0  0  0  0  0  0
   -2.3025  -48.1900    5.6256 H   0  0  0  0  0  0  0  0  0  0  0  0
    1.6600  -47.0013    4.4663 H   0  0  0  0  0  0  0  0  0  0  0  0
   -0.1308  -46.8877    4.3842 H   0  0  0  0  0  0  0  0  0  0  0  0
    1.5920  -46.0692    6.7788 H   0  0  0  0  0  0  0  0  0  0  0  0
    0.9160  -44.9445    5.5522 H   0  0  0  0  0  0  0  0  0  0  0  0
   -0.8377  -46.7610    7.2753 H   0  0  0  0  0  0  0  0  0  0  0  0
   -0.3684  -45.0972    7.7634 H   0  0  0  0  0  0  0  0  0  0  0  0
   -2.6259  -46.3819    8.2911 H   0  0  0  0  0  0  0  0  0  0  0  0
   -6.4410  -44.4365    7.8368 H   0  0  0  0  0  0  0  0  0  0  0  0
   -5.6156  -43.2951    5.7893 H   0  0  0  0  0  0  0  0  0  0  0  0
   -3.3017  -43.7005    4.9914 H   0  0  0  0  0  0  0  0  0  0  0  0
  1  2  2  0  0  0  0
  2  3  1  0  0  0  0
  2  4  1  0  0  0  0
  4 11  1  0  0  0  0
  4 22  2  0  0  0  0
  5  6  2  0  0  0  0
  5 10  1  0  0  0  0
  5 22  1  0  0  0  0
  6  7  1  0  0  0  0
  7  8  2  0  0  0  0
  8  9  1  0  0  0  0
  9 10  1  0  0  0  0
 10 11  2  0  0  0  0
 11 12  1  0  0  0  0
 12 13  1  0  0  0  0
 13 14  1  0  0  0  0
 14 15  1  0  0  0  0
 15 16  1  0  0  0  0
 16 17  2  0  0  0  0
 16 21  1  0  0  0  0
 17 18  1  0  0  0  0
 18 19  2  0  0  0  0
 18 24  1  0  0  0  0
 19 20  1  0  0  0  0
 20 21  2  0  0  0  0
 23 24  1  0  0  0  0
 24 25  1  0  0  0  0
 24 26  1  0  0  0  0
  3 27  1  0  0  0  0
  6 28  1  0  0  0  0
  7 29  1  0  0  0  0
  8 30  1  0  0  0  0
  9 31  1  0  0  0  0
  9 32  1  0  0  0  0
 12 33  1  0  0  0  0
 12 34  1  0  0  0  0
 13 35  1  0  0  0  0
 13 36  1  0  0  0  0
 14 37  1  0  0  0  0
 14 38  1  0  0  0  0
 17 39  1  0  0  0  0
 19 40  1  0  0  0  0
 20 41  1  0  0  0  0
 21 42  1  0  0  0  0
M  END
> <r_user_dG.exp>
-7.91951688961355

$$$$
31
  -OEChem-05192314073D
 Structure written by MMmdl.
 42 44  0     0  0  0  0  0  0999 V2000
    3.5641  -47.7534    6.2143 O   0  0  0  0  0  0  0  0  0  0  0  0
    3.0122  -48.7554    6.7454 C   0  0  0  0  0  0  0  0  0  0  0  0
    3.6123  -49.5070    7.5449 O   0  0  0  0  0  0  0  0  0  0  0  0
    1.5969  -49.0608    6.3966 C   0  0  0  0  0  0  0  0  0  0  0  0
   -0.2442  -50.4134    6.4643 C   0  0  0  0  0  0  0  0  0  0  0  0
   -1.2037  -51.4312    6.6788 C   0  0  0  0  0  0  0  0  0  0  0  0
   -2.5043  -51.2795    6.1613 C   0  0  0  0  0  0  0  0  0  0  0  0
   -2.8377  -50.1268    5.4226 C   0  0  0  0  0  0  0  0  0  0  0  0
   -1.8793  -49.1151    5.2073 C   0  0  0  0  0  0  0  0  0  0  0  0
   -0.5657  -49.2279    5.7279 C   0  0  0  0  0  0  0  0  0  0  0  0
    0.6141  -48.3957    5.7009 C   0  0  0  0  0  0  0  0  0  0  0  0
    0.7301  -47.0351    5.0529 C   0  0  0  0  0  0  0  0  0  0  0  0
    0.7552  -45.8921    6.0871 C   0  0  0  0  0  0  0  0  0  0  0  0
   -0.5322  -45.7699    6.9086 C   0  0  0  0  0  0  0  0  0  0  0  0
   -1.5383  -45.2373    6.0607 O   0  0  0  0  0  0  0  0  0  0  0  0
   -2.7966  -45.0645    6.5801 C   0  0  0  0  0  0  0  0  0  0  0  0
   -3.2770  -45.7162    7.7440 C   0  0  0  0  0  0  0  0  0  0  0  0
   -4.5937  -45.5045    8.1936 C   0  0  0  0  0  0  0  0  0  0  0  0
   -5.4351  -44.6171    7.4875 C   0  0  0  0  0  0  0  0  0  0  0  0
   -4.9679  -43.9681    6.3316 C   0  0  0  0  0  0  0  0  0  0  0  0
   -3.6549  -44.1973    5.8830 C   0  0  0  0  0  0  0  0  0  0  0  0
    1.0786  -50.2786    6.8435 N   0  0  0  0  0  0  0  0  0  0  0  0
   -5.7749  -45.4084   10.2138 F   0  0  0  0  0  0  0  0  0  0  0  0
   -5.1355  -46.2506    9.4023 C   0  0  0  0  0  0  0  0  0  0  0  0
   -5.9929  -47.1821    8.9848 F   0  0  0  0  0  0  0  0  0  0  0  0
   -4.1591  -46.8446   10.0908 F   0  0  0  0  0  0  0  0  0  0  0  0
    2.9444  -47.3162    5.6422 H   0  0  0  0  0  0  0  0  0  0  0  0
    3.0268  -50.1985    7.8304 H   0  0  0  0  0  0  0  0  0  0  0  0
   -0.9401  -52.3183    7.2356 H   0  0  0  0  0  0  0  0  0  0  0  0
   -3.2460  -52.0462    6.3304 H   0  0  0  0  0  0  0  0  0  0  0  0
   -3.8334  -50.0175    5.0188 H   0  0  0  0  0  0  0  0  0  0  0  0
   -2.1507  -48.2396    4.6361 H   0  0  0  0  0  0  0  0  0  0  0  0
    1.6600  -47.0013    4.4663 H   0  0  0  0  0  0  0  0  0  0  0  0
   -0.1308  -46.8877    4.3842 H   0  0  0  0  0  0  0  0  0  0  0  0
    1.5920  -46.0692    6.7788 H   0  0  0  0  0  0  0  0  0  0  0  0
    0.9160  -44.9445    5.5522 H   0  0  0  0  0  0  0  0  0  0  0  0
   -0.8377  -46.7610    7.2753 H   0  0  0  0  0  0  0  0  0  0  0  0
   -0.3684  -45.0972    7.7634 H   0  0  0  0  0  0  0  0  0  0  0  0
   -2.6259  -46.3819    8.2911 H   0  0  0  0  0  0  0  0  0  0  0  0
   -6.4410  -44.4365    7.8368 H   0  0  0  0  0  0  0  0  0  0  0  0
   -5.6156  -43.2951    5.7893 H   0  0  0  0  0  0  0  0  0  0  0  0
   -3.3017  -43.7005    4.9914 H   0  0  0  0  0  0  0  0  0  0  0  0
  1  2  1  0  0  0  0
  2  3  1  0  0  0  0
  2  4  2  0  0  0  0
  4 11  1  0  0  0  0
  4 22  1  0  0  0  0
  5  6  1  0  0  0  0
  5 10  1  0  0  0  0
  5 22  2  0  0  0  0
  6  7  2  0  0  0  0
  7  8  1  0  0  0  0
  8  9  2  0  0  0  0
  9 10  1  0  0  0  0
 10 11  2  0  0  0  0
 11 12  1  0  0  0  0
 12 13  1  0  0  0  0
 13 14  1  0  0  0  0
 14 15  1  0  0  0  0
 15 16  1  0  0  0  0
 16 17  2  0  0  0  0
 16 21  1  0  0  0  0
 17 18  1  0  0  0  0
 18 19  2  0  0  0  0
 18 24  1  0  0  0  0
 19 20  1  0  0  0  0
 20 21  2  0  0  0  0
 23 24  1  0  0  0  0
 24 25  1  0  0  0  0
 24 26  1  0  0  0  0
  1 27  1  0  0  0  0
  3 28  1  0  0  0  0
  6 29  1  0  0  0  0
  7 30  1  0  0  0  0
  8 31  1  0  0  0  0
  9 32  1  0  0  0  0
 12 33  1  0  0  0  0
 12 34  1  0  0  0  0
 13 35  1  0  0  0  0
 13 36  1  0  0  0  0
 14 37  1  0  0  0  0
 14 38  1  0  0  0  0
 17 39  1  0  0  0  0
 19 40  1  0  0  0  0
 20 41  1  0  0  0  0
 21 42  1  0  0  0  0
M  END
> <r_user_dG.exp>
-7.91951688961355

$$$$
