49
  -OEChem-05162309453D
 Structure written by MMmdl.
 42 44  0     0  0  0  0  0  0999 V2000
    3.7483  -50.0541    7.1170 O   0  0  0  0  0  0  0  0  0  0  0  0
    3.0006  -49.1057    6.7954 C   0  0  0  0  0  0  0  0  0  0  0  0
    3.4290  -47.9343    6.7113 O   0  0  0  0  0  0  0  0  0  0  0  0
    1.5768  -49.4207    6.4879 C   0  0  0  0  0  0  0  0  0  0  0  0
   -0.1297  -50.9210    6.2861 C   0  0  0  0  0  0  0  0  0  0  0  0
   -0.9519  -52.0650    6.2906 C   0  0  0  0  0  0  0  0  0  0  0  0
   -2.3129  -51.9374    5.9451 C   0  0  0  0  0  0  0  0  0  0  0  0
   -2.8209  -50.6854    5.5793 C   0  0  0  0  0  0  0  0  0  0  0  0
   -1.9989  -49.5403    5.5815 C   0  0  0  0  0  0  0  0  0  0  0  0
   -0.6224  -49.6228    5.9597 C   0  0  0  0  0  0  0  0  0  0  0  0
    0.4706  -48.6823    6.1245 C   0  0  0  0  0  0  0  0  0  0  0  0
    0.3811  -47.1915    5.9728 C   0  0  0  0  0  0  0  0  0  0  0  0
   -0.2096  -46.5273    7.2339 C   0  0  0  0  0  0  0  0  0  0  0  0
   -0.7304  -45.1005    6.9792 C   0  0  0  0  0  0  0  0  0  0  0  0
   -1.8882  -45.1382    6.1518 O   0  0  0  0  0  0  0  0  0  0  0  0
   -3.1367  -45.2529    6.7348 C   0  0  0  0  0  0  0  0  0  0  0  0
   -3.3729  -45.5902    8.0931 C   0  0  0  0  0  0  0  0  0  0  0  0
   -4.6916  -45.7161    8.5834 C   0  0  0  0  0  0  0  0  0  0  0  0
   -4.9112  -46.1093   10.0362 C   0  0  0  0  0  0  0  0  0  0  0  0
   -5.7883  -45.5041    7.7218 C   0  0  0  0  0  0  0  0  0  0  0  0
   -7.4049  -45.7013    8.2786 Cl  0  0  0  0  0  0  0  0  0  0  0  0
   -5.5577  -45.1489    6.3816 C   0  0  0  0  0  0  0  0  0  0  0  0
   -4.2425  -45.0326    5.8932 C   0  0  0  0  0  0  0  0  0  0  0  0
   -2.6995  -48.0386    5.1160 Cl  0  0  0  0  0  0  0  0  0  0  0  0
    1.2122  -50.7518    6.5733 N   0  0  0  0  0  0  0  0  0  0  0  0
    4.3549  -47.9193    6.9234 H   0  0  0  0  0  0  0  0  0  0  0  0
   -0.5441  -53.0293    6.5558 H   0  0  0  0  0  0  0  0  0  0  0  0
   -2.9604  -52.8016    5.9626 H   0  0  0  0  0  0  0  0  0  0  0  0
   -3.8579  -50.5955    5.2912 H   0  0  0  0  0  0  0  0  0  0  0  0
    1.3897  -46.7893    5.7965 H   0  0  0  0  0  0  0  0  0  0  0  0
   -0.2623  -46.9582    5.1117 H   0  0  0  0  0  0  0  0  0  0  0  0
   -1.0446  -47.1450    7.5961 H   0  0  0  0  0  0  0  0  0  0  0  0
    0.5738  -46.4814    8.0047 H   0  0  0  0  0  0  0  0  0  0  0  0
   -0.9862  -44.6305    7.9403 H   0  0  0  0  0  0  0  0  0  0  0  0
    0.0534  -44.5117    6.4802 H   0  0  0  0  0  0  0  0  0  0  0  0
   -2.5370  -45.7520    8.7576 H   0  0  0  0  0  0  0  0  0  0  0  0
   -4.9698  -45.2031   10.6570 H   0  0  0  0  0  0  0  0  0  0  0  0
   -5.8500  -46.6756   10.1248 H   0  0  0  0  0  0  0  0  0  0  0  0
   -4.0726  -46.7339   10.3777 H   0  0  0  0  0  0  0  0  0  0  0  0
   -6.3937  -44.9643    5.7232 H   0  0  0  0  0  0  0  0  0  0  0  0
   -4.0801  -44.7706    4.8581 H   0  0  0  0  0  0  0  0  0  0  0  0
    1.8374  -51.4950    6.8116 H   0  0  0  0  0  0  0  0  0  0  0  0
  1  2  2  0  0  0  0
  2  3  1  0  0  0  0
  2  4  1  0  0  0  0
  4 11  2  0  0  0  0
  4 25  1  0  0  0  0
  5  6  2  0  0  0  0
  5 10  1  0  0  0  0
  5 25  1  0  0  0  0
  6  7  1  0  0  0  0
  7  8  2  0  0  0  0
  8  9  1  0  0  0  0
  9 10  2  0  0  0  0
  9 24  1  0  0  0  0
 10 11  1  0  0  0  0
 11 12  1  0  0  0  0
 12 13  1  0  0  0  0
 13 14  1  0  0  0  0
 14 15  1  0  0  0  0
 15 16  1  0  0  0  0
 16 17  2  0  0  0  0
 16 23  1  0  0  0  0
 17 18  1  0  0  0  0
 18 19  1  0  0  0  0
 18 20  2  0  0  0  0
 20 21  1  0  0  0  0
 20 22  1  0  0  0  0
 22 23  2  0  0  0  0
  3 26  1  0  0  0  0
  6 27  1  0  0  0  0
  7 28  1  0  0  0  0
  8 29  1  0  0  0  0
 12 30  1  0  0  0  0
 12 31  1  0  0  0  0
 13 32  1  0  0  0  0
 13 33  1  0  0  0  0
 14 34  1  0  0  0  0
 14 35  1  0  0  0  0
 17 36  1  0  0  0  0
 19 37  1  0  0  0  0
 19 38  1  0  0  0  0
 19 39  1  0  0  0  0
 22 40  1  0  0  0  0
 23 41  1  0  0  0  0
 25 42  1  0  0  0  0
M  END
> <r_user_dG.exp>
-8.36145743731744

$$$$
49
  -OEChem-05162309453D
 Structure written by MMmdl.
 42 44  0     1  0  0  0  0  0999 V2000
    3.7483  -50.0541    7.1170 O   0  0  0  0  0  0  0  0  0  0  0  0
    3.0006  -49.1057    6.7954 C   0  0  0  0  0  0  0  0  0  0  0  0
    3.4290  -47.9343    6.7113 O   0  0  0  0  0  0  0  0  0  0  0  0
    1.5768  -49.4207    6.4879 C   0  0  0  0  0  0  0  0  0  0  0  0
   -0.1297  -50.9210    6.2861 C   0  0  0  0  0  0  0  0  0  0  0  0
   -0.9519  -52.0650    6.2906 C   0  0  0  0  0  0  0  0  0  0  0  0
   -2.3129  -51.9374    5.9451 C   0  0  0  0  0  0  0  0  0  0  0  0
   -2.8209  -50.6854    5.5793 C   0  0  0  0  0  0  0  0  0  0  0  0
   -1.9989  -49.5403    5.5815 C   0  0  0  0  0  0  0  0  0  0  0  0
   -0.6224  -49.6228    5.9597 C   0  0  0  0  0  0  0  0  0  0  0  0
    0.4706  -48.6823    6.1245 C   0  0  3  0  0  0  0  0  0  0  0  0
    0.3811  -47.1915    5.9728 C   0  0  0  0  0  0  0  0  0  0  0  0
   -0.2096  -46.5273    7.2339 C   0  0  0  0  0  0  0  0  0  0  0  0
   -0.7304  -45.1005    6.9792 C   0  0  0  0  0  0  0  0  0  0  0  0
   -1.8882  -45.1382    6.1518 O   0  0  0  0  0  0  0  0  0  0  0  0
   -3.1367  -45.2529    6.7348 C   0  0  0  0  0  0  0  0  0  0  0  0
   -3.3729  -45.5902    8.0931 C   0  0  0  0  0  0  0  0  0  0  0  0
   -4.6916  -45.7161    8.5834 C   0  0  0  0  0  0  0  0  0  0  0  0
   -4.9112  -46.1093   10.0362 C   0  0  0  0  0  0  0  0  0  0  0  0
   -5.7883  -45.5041    7.7218 C   0  0  0  0  0  0  0  0  0  0  0  0
   -7.4049  -45.7013    8.2786 Cl  0  0  0  0  0  0  0  0  0  0  0  0
   -5.5577  -45.1489    6.3816 C   0  0  0  0  0  0  0  0  0  0  0  0
   -4.2425  -45.0326    5.8932 C   0  0  0  0  0  0  0  0  0  0  0  0
   -2.6995  -48.0386    5.1160 Cl  0  0  0  0  0  0  0  0  0  0  0  0
    1.2122  -50.7518    6.5733 N   0  0  0  0  0  0  0  0  0  0  0  0
    4.3549  -47.9193    6.9234 H   0  0  0  0  0  0  0  0  0  0  0  0
   -0.5441  -53.0293    6.5558 H   0  0  0  0  0  0  0  0  0  0  0  0
   -2.9604  -52.8016    5.9626 H   0  0  0  0  0  0  0  0  0  0  0  0
   -3.8579  -50.5955    5.2912 H   0  0  0  0  0  0  0  0  0  0  0  0
    0.7353  -48.7858    5.0619 H   0  0  0  0  0  0  0  0  0  0  0  0
    1.3897  -46.7893    5.7965 H   0  0  0  0  0  0  0  0  0  0  0  0
   -0.2623  -46.9582    5.1117 H   0  0  0  0  0  0  0  0  0  0  0  0
   -1.0446  -47.1450    7.5961 H   0  0  0  0  0  0  0  0  0  0  0  0
    0.5738  -46.4814    8.0047 H   0  0  0  0  0  0  0  0  0  0  0  0
   -0.9862  -44.6305    7.9403 H   0  0  0  0  0  0  0  0  0  0  0  0
    0.0534  -44.5117    6.4802 H   0  0  0  0  0  0  0  0  0  0  0  0
   -2.5370  -45.7520    8.7576 H   0  0  0  0  0  0  0  0  0  0  0  0
   -4.9698  -45.2031   10.6570 H   0  0  0  0  0  0  0  0  0  0  0  0
   -5.8500  -46.6756   10.1248 H   0  0  0  0  0  0  0  0  0  0  0  0
   -4.0726  -46.7339   10.3777 H   0  0  0  0  0  0  0  0  0  0  0  0
   -6.3937  -44.9643    5.7232 H   0  0  0  0  0  0  0  0  0  0  0  0
   -4.0801  -44.7706    4.8581 H   0  0  0  0  0  0  0  0  0  0  0  0
  1  2  2  0  0  0  0
  2  3  1  0  0  0  0
  2  4  1  0  0  0  0
  4 11  1  0  0  0  0
  4 25  2  0  0  0  0
  5  6  2  0  0  0  0
  5 10  1  0  0  0  0
  5 25  1  0  0  0  0
  6  7  1  0  0  0  0
  7  8  2  0  0  0  0
  8  9  1  0  0  0  0
  9 10  2  0  0  0  0
  9 24  1  0  0  0  0
 10 11  1  0  0  0  0
 11 12  1  0  0  0  0
 12 13  1  0  0  0  0
 13 14  1  0  0  0  0
 14 15  1  0  0  0  0
 15 16  1  0  0  0  0
 16 17  2  0  0  0  0
 16 23  1  0  0  0  0
 17 18  1  0  0  0  0
 18 19  1  0  0  0  0
 18 20  2  0  0  0  0
 20 21  1  0  0  0  0
 20 22  1  0  0  0  0
 22 23  2  0  0  0  0
  3 26  1  0  0  0  0
  6 27  1  0  0  0  0
  7 28  1  0  0  0  0
  8 29  1  0  0  0  0
 11 30  1  0  0  0  0
 12 31  1  0  0  0  0
 12 32  1  0  0  0  0
 13 33  1  0  0  0  0
 13 34  1  0  0  0  0
 14 35  1  0  0  0  0
 14 36  1  0  0  0  0
 17 37  1  0  0  0  0
 19 38  1  0  0  0  0
 19 39  1  0  0  0  0
 19 40  1  0  0  0  0
 22 41  1  0  0  0  0
 23 42  1  0  0  0  0
M  END
> <r_user_dG.exp>
-8.36145743731744

$$$$
49
  -OEChem-05162309453D
 Structure written by MMmdl.
 42 44  0     1  0  0  0  0  0999 V2000
    3.7483  -50.0541    7.1170 O   0  0  0  0  0  0  0  0  0  0  0  0
    3.0006  -49.1057    6.7954 C   0  0  0  0  0  0  0  0  0  0  0  0
    3.4290  -47.9343    6.7113 O   0  0  0  0  0  0  0  0  0  0  0  0
    1.5768  -49.4207    6.4879 C   0  0  3  0  0  0  0  0  0  0  0  0
   -0.1297  -50.9210    6.2861 C   0  0  0  0  0  0  0  0  0  0  0  0
   -0.9519  -52.0650    6.2906 C   0  0  0  0  0  0  0  0  0  0  0  0
   -2.3129  -51.9374    5.9451 C   0  0  0  0  0  0  0  0  0  0  0  0
   -2.8209  -50.6854    5.5793 C   0  0  0  0  0  0  0  0  0  0  0  0
   -1.9989  -49.5403    5.5815 C   0  0  0  0  0  0  0  0  0  0  0  0
   -0.6224  -49.6228    5.9597 C   0  0  0  0  0  0  0  0  0  0  0  0
    0.4706  -48.6823    6.1245 C   0  0  0  0  0  0  0  0  0  0  0  0
    0.3811  -47.1915    5.9728 C   0  0  0  0  0  0  0  0  0  0  0  0
   -0.2096  -46.5273    7.2339 C   0  0  0  0  0  0  0  0  0  0  0  0
   -0.7304  -45.1005    6.9792 C   0  0  0  0  0  0  0  0  0  0  0  0
   -1.8882  -45.1382    6.1518 O   0  0  0  0  0  0  0  0  0  0  0  0
   -3.1367  -45.2529    6.7348 C   0  0  0  0  0  0  0  0  0  0  0  0
   -3.3729  -45.5902    8.0931 C   0  0  0  0  0  0  0  0  0  0  0  0
   -4.6916  -45.7161    8.5834 C   0  0  0  0  0  0  0  0  0  0  0  0
   -4.9112  -46.1093   10.0362 C   0  0  0  0  0  0  0  0  0  0  0  0
   -5.7883  -45.5041    7.7218 C   0  0  0  0  0  0  0  0  0  0  0  0
   -7.4049  -45.7013    8.2786 Cl  0  0  0  0  0  0  0  0  0  0  0  0
   -5.5577  -45.1489    6.3816 C   0  0  0  0  0  0  0  0  0  0  0  0
   -4.2425  -45.0326    5.8932 C   0  0  0  0  0  0  0  0  0  0  0  0
   -2.6995  -48.0386    5.1160 Cl  0  0  0  0  0  0  0  0  0  0  0  0
    1.2122  -50.7518    6.5733 N   0  0  0  0  0  0  0  0  0  0  0  0
    4.3549  -47.9193    6.9234 H   0  0  0  0  0  0  0  0  0  0  0  0
    1.8350  -49.5581    5.4275 H   0  0  0  0  0  0  0  0  0  0  0  0
   -0.5441  -53.0293    6.5558 H   0  0  0  0  0  0  0  0  0  0  0  0
   -2.9604  -52.8016    5.9626 H   0  0  0  0  0  0  0  0  0  0  0  0
   -3.8579  -50.5955    5.2912 H   0  0  0  0  0  0  0  0  0  0  0  0
    1.3897  -46.7893    5.7965 H   0  0  0  0  0  0  0  0  0  0  0  0
   -0.2623  -46.9582    5.1117 H   0  0  0  0  0  0  0  0  0  0  0  0
   -1.0446  -47.1450    7.5961 H   0  0  0  0  0  0  0  0  0  0  0  0
    0.5738  -46.4814    8.0047 H   0  0  0  0  0  0  0  0  0  0  0  0
   -0.9862  -44.6305    7.9403 H   0  0  0  0  0  0  0  0  0  0  0  0
    0.0534  -44.5117    6.4802 H   0  0  0  0  0  0  0  0  0  0  0  0
   -2.5370  -45.7520    8.7576 H   0  0  0  0  0  0  0  0  0  0  0  0
   -4.9698  -45.2031   10.6570 H   0  0  0  0  0  0  0  0  0  0  0  0
   -5.8500  -46.6756   10.1248 H   0  0  0  0  0  0  0  0  0  0  0  0
   -4.0726  -46.7339   10.3777 H   0  0  0  0  0  0  0  0  0  0  0  0
   -6.3937  -44.9643    5.7232 H   0  0  0  0  0  0  0  0  0  0  0  0
   -4.0801  -44.7706    4.8581 H   0  0  0  0  0  0  0  0  0  0  0  0
  1  2  2  0  0  0  0
  2  3  1  0  0  0  0
  2  4  1  0  0  0  0
  4 11  1  0  0  0  0
  4 25  1  0  0  0  0
  5  6  1  0  0  0  0
  5 10  1  0  0  0  0
  5 25  2  0  0  0  0
  6  7  2  0  0  0  0
  7  8  1  0  0  0  0
  8  9  2  0  0  0  0
  9 10  1  0  0  0  0
  9 24  1  0  0  0  0
 10 11  2  0  0  0  0
 11 12  1  0  0  0  0
 12 13  1  0  0  0  0
 13 14  1  0  0  0  0
 14 15  1  0  0  0  0
 15 16  1  0  0  0  0
 16 17  2  0  0  0  0
 16 23  1  0  0  0  0
 17 18  1  0  0  0  0
 18 19  1  0  0  0  0
 18 20  2  0  0  0  0
 20 21  1  0  0  0  0
 20 22  1  0  0  0  0
 22 23  2  0  0  0  0
  3 26  1  0  0  0  0
  4 27  1  0  0  0  0
  6 28  1  0  0  0  0
  7 29  1  0  0  0  0
  8 30  1  0  0  0  0
 12 31  1  0  0  0  0
 12 32  1  0  0  0  0
 13 33  1  0  0  0  0
 13 34  1  0  0  0  0
 14 35  1  0  0  0  0
 14 36  1  0  0  0  0
 17 37  1  0  0  0  0
 19 38  1  0  0  0  0
 19 39  1  0  0  0  0
 19 40  1  0  0  0  0
 22 41  1  0  0  0  0
 23 42  1  0  0  0  0
M  END
> <r_user_dG.exp>
-8.36145743731744

$$$$
49
  -OEChem-05162309453D
 Structure written by MMmdl.
 42 44  0     1  0  0  0  0  0999 V2000
    3.7483  -50.0541    7.1170 O   0  0  0  0  0  0  0  0  0  0  0  0
    3.0006  -49.1057    6.7954 C   0  0  0  0  0  0  0  0  0  0  0  0
    3.4290  -47.9343    6.7113 O   0  0  0  0  0  0  0  0  0  0  0  0
    1.5768  -49.4207    6.4879 C   0  0  0  0  0  0  0  0  0  0  0  0
   -0.1297  -50.9210    6.2861 C   0  0  0  0  0  0  0  0  0  0  0  0
   -0.9519  -52.0650    6.2906 C   0  0  0  0  0  0  0  0  0  0  0  0
   -2.3129  -51.9374    5.9451 C   0  0  0  0  0  0  0  0  0  0  0  0
   -2.8209  -50.6854    5.5793 C   0  0  0  0  0  0  0  0  0  0  0  0
   -1.9989  -49.5403    5.5815 C   0  0  3  0  0  0  0  0  0  0  0  0
   -0.6224  -49.6228    5.9597 C   0  0  0  0  0  0  0  0  0  0  0  0
    0.4706  -48.6823    6.1245 C   0  0  0  0  0  0  0  0  0  0  0  0
    0.3811  -47.1915    5.9728 C   0  0  0  0  0  0  0  0  0  0  0  0
   -0.2096  -46.5273    7.2339 C   0  0  0  0  0  0  0  0  0  0  0  0
   -0.7304  -45.1005    6.9792 C   0  0  0  0  0  0  0  0  0  0  0  0
   -1.8882  -45.1382    6.1518 O   0  0  0  0  0  0  0  0  0  0  0  0
   -3.1367  -45.2529    6.7348 C   0  0  0  0  0  0  0  0  0  0  0  0
   -3.3729  -45.5902    8.0931 C   0  0  0  0  0  0  0  0  0  0  0  0
   -4.6916  -45.7161    8.5834 C   0  0  0  0  0  0  0  0  0  0  0  0
   -4.9112  -46.1093   10.0362 C   0  0  0  0  0  0  0  0  0  0  0  0
   -5.7883  -45.5041    7.7218 C   0  0  0  0  0  0  0  0  0  0  0  0
   -7.4049  -45.7013    8.2786 Cl  0  0  0  0  0  0  0  0  0  0  0  0
   -5.5577  -45.1489    6.3816 C   0  0  0  0  0  0  0  0  0  0  0  0
   -4.2425  -45.0326    5.8932 C   0  0  0  0  0  0  0  0  0  0  0  0
   -2.6995  -48.0386    5.1160 Cl  0  0  0  0  0  0  0  0  0  0  0  0
    1.2122  -50.7518    6.5733 N   0  0  0  0  0  0  0  0  0  0  0  0
    4.3549  -47.9193    6.9234 H   0  0  0  0  0  0  0  0  0  0  0  0
   -0.5441  -53.0293    6.5558 H   0  0  0  0  0  0  0  0  0  0  0  0
   -2.9604  -52.8016    5.9626 H   0  0  0  0  0  0  0  0  0  0  0  0
   -3.8579  -50.5955    5.2912 H   0  0  0  0  0  0  0  0  0  0  0  0
   -1.7231  -49.7362    4.5348 H   0  0  0  0  0  0  0  0  0  0  0  0
    1.3897  -46.7893    5.7965 H   0  0  0  0  0  0  0  0  0  0  0  0
   -0.2623  -46.9582    5.1117 H   0  0  0  0  0  0  0  0  0  0  0  0
   -1.0446  -47.1450    7.5961 H   0  0  0  0  0  0  0  0  0  0  0  0
    0.5738  -46.4814    8.0047 H   0  0  0  0  0  0  0  0  0  0  0  0
   -0.9862  -44.6305    7.9403 H   0  0  0  0  0  0  0  0  0  0  0  0
    0.0534  -44.5117    6.4802 H   0  0  0  0  0  0  0  0  0  0  0  0
   -2.5370  -45.7520    8.7576 H   0  0  0  0  0  0  0  0  0  0  0  0
   -4.9698  -45.2031   10.6570 H   0  0  0  0  0  0  0  0  0  0  0  0
   -5.8500  -46.6756   10.1248 H   0  0  0  0  0  0  0  0  0  0  0  0
   -4.0726  -46.7339   10.3777 H   0  0  0  0  0  0  0  0  0  0  0  0
   -6.3937  -44.9643    5.7232 H   0  0  0  0  0  0  0  0  0  0  0  0
   -4.0801  -44.7706    4.8581 H   0  0  0  0  0  0  0  0  0  0  0  0
  1  2  2  0  0  0  0
  2  3  1  0  0  0  0
  2  4  1  0  0  0  0
  4 11  1  0  0  0  0
  4 25  2  0  0  0  0
  5  6  2  0  0  0  0
  5 10  1  0  0  0  0
  5 25  1  0  0  0  0
  6  7  1  0  0  0  0
  7  8  2  0  0  0  0
  8  9  1  0  0  0  0
  9 10  1  0  0  0  0
  9 24  1  0  0  0  0
 10 11  2  0  0  0  0
 11 12  1  0  0  0  0
 12 13  1  0  0  0  0
 13 14  1  0  0  0  0
 14 15  1  0  0  0  0
 15 16  1  0  0  0  0
 16 17  2  0  0  0  0
 16 23  1  0  0  0  0
 17 18  1  0  0  0  0
 18 19  1  0  0  0  0
 18 20  2  0  0  0  0
 20 21  1  0  0  0  0
 20 22  1  0  0  0  0
 22 23  2  0  0  0  0
  3 26  1  0  0  0  0
  6 27  1  0  0  0  0
  7 28  1  0  0  0  0
  8 29  1  0  0  0  0
  9 30  1  0  0  0  0
 12 31  1  0  0  0  0
 12 32  1  0  0  0  0
 13 33  1  0  0  0  0
 13 34  1  0  0  0  0
 14 35  1  0  0  0  0
 14 36  1  0  0  0  0
 17 37  1  0  0  0  0
 19 38  1  0  0  0  0
 19 39  1  0  0  0  0
 19 40  1  0  0  0  0
 22 41  1  0  0  0  0
 23 42  1  0  0  0  0
M  END
> <r_user_dG.exp>
-8.36145743731744

$$$$
49
  -OEChem-05162309453D
 Structure written by MMmdl.
 42 44  0     1  0  0  0  0  0999 V2000
    3.7483  -50.0541    7.1170 O   0  0  0  0  0  0  0  0  0  0  0  0
    3.0006  -49.1057    6.7954 C   0  0  0  0  0  0  0  0  0  0  0  0
    3.4290  -47.9343    6.7113 O   0  0  0  0  0  0  0  0  0  0  0  0
    1.5768  -49.4207    6.4879 C   0  0  0  0  0  0  0  0  0  0  0  0
   -0.1297  -50.9210    6.2861 C   0  0  0  0  0  0  0  0  0  0  0  0
   -0.9519  -52.0650    6.2906 C   0  0  0  0  0  0  0  0  0  0  0  0
   -2.3129  -51.9374    5.9451 C   0  0  0  0  0  0  0  0  0  0  0  0
   -2.8209  -50.6854    5.5793 C   0  0  0  0  0  0  0  0  0  0  0  0
   -1.9989  -49.5403    5.5815 C   0  0  0  0  0  0  0  0  0  0  0  0
   -0.6224  -49.6228    5.9597 C   0  0  3  0  0  0  0  0  0  0  0  0
    0.4706  -48.6823    6.1245 C   0  0  0  0  0  0  0  0  0  0  0  0
    0.3811  -47.1915    5.9728 C   0  0  0  0  0  0  0  0  0  0  0  0
   -0.2096  -46.5273    7.2339 C   0  0  0  0  0  0  0  0  0  0  0  0
   -0.7304  -45.1005    6.9792 C   0  0  0  0  0  0  0  0  0  0  0  0
   -1.8882  -45.1382    6.1518 O   0  0  0  0  0  0  0  0  0  0  0  0
   -3.1367  -45.2529    6.7348 C   0  0  0  0  0  0  0  0  0  0  0  0
   -3.3729  -45.5902    8.0931 C   0  0  0  0  0  0  0  0  0  0  0  0
   -4.6916  -45.7161    8.5834 C   0  0  0  0  0  0  0  0  0  0  0  0
   -4.9112  -46.1093   10.0362 C   0  0  0  0  0  0  0  0  0  0  0  0
   -5.7883  -45.5041    7.7218 C   0  0  0  0  0  0  0  0  0  0  0  0
   -7.4049  -45.7013    8.2786 Cl  0  0  0  0  0  0  0  0  0  0  0  0
   -5.5577  -45.1489    6.3816 C   0  0  0  0  0  0  0  0  0  0  0  0
   -4.2425  -45.0326    5.8932 C   0  0  0  0  0  0  0  0  0  0  0  0
   -2.6995  -48.0386    5.1160 Cl  0  0  0  0  0  0  0  0  0  0  0  0
    1.2122  -50.7518    6.5733 N   0  0  0  0  0  0  0  0  0  0  0  0
    4.3549  -47.9193    6.9234 H   0  0  0  0  0  0  0  0  0  0  0  0
   -0.5441  -53.0293    6.5558 H   0  0  0  0  0  0  0  0  0  0  0  0
   -2.9604  -52.8016    5.9626 H   0  0  0  0  0  0  0  0  0  0  0  0
   -3.8579  -50.5955    5.2912 H   0  0  0  0  0  0  0  0  0  0  0  0
   -0.3383  -49.7749    4.9080 H   0  0  0  0  0  0  0  0  0  0  0  0
    1.3897  -46.7893    5.7965 H   0  0  0  0  0  0  0  0  0  0  0  0
   -0.2623  -46.9582    5.1117 H   0  0  0  0  0  0  0  0  0  0  0  0
   -1.0446  -47.1450    7.5961 H   0  0  0  0  0  0  0  0  0  0  0  0
    0.5738  -46.4814    8.0047 H   0  0  0  0  0  0  0  0  0  0  0  0
   -0.9862  -44.6305    7.9403 H   0  0  0  0  0  0  0  0  0  0  0  0
    0.0534  -44.5117    6.4802 H   0  0  0  0  0  0  0  0  0  0  0  0
   -2.5370  -45.7520    8.7576 H   0  0  0  0  0  0  0  0  0  0  0  0
   -4.9698  -45.2031   10.6570 H   0  0  0  0  0  0  0  0  0  0  0  0
   -5.8500  -46.6756   10.1248 H   0  0  0  0  0  0  0  0  0  0  0  0
   -4.0726  -46.7339   10.3777 H   0  0  0  0  0  0  0  0  0  0  0  0
   -6.3937  -44.9643    5.7232 H   0  0  0  0  0  0  0  0  0  0  0  0
   -4.0801  -44.7706    4.8581 H   0  0  0  0  0  0  0  0  0  0  0  0
  1  2  2  0  0  0  0
  2  3  1  0  0  0  0
  2  4  1  0  0  0  0
  4 11  2  0  0  0  0
  4 25  1  0  0  0  0
  5  6  1  0  0  0  0
  5 10  1  0  0  0  0
  5 25  2  0  0  0  0
  6  7  2  0  0  0  0
  7  8  1  0  0  0  0
  8  9  2  0  0  0  0
  9 10  1  0  0  0  0
  9 24  1  0  0  0  0
 10 11  1  0  0  0  0
 11 12  1  0  0  0  0
 12 13  1  0  0  0  0
 13 14  1  0  0  0  0
 14 15  1  0  0  0  0
 15 16  1  0  0  0  0
 16 17  2  0  0  0  0
 16 23  1  0  0  0  0
 17 18  1  0  0  0  0
 18 19  1  0  0  0  0
 18 20  2  0  0  0  0
 20 21  1  0  0  0  0
 20 22  1  0  0  0  0
 22 23  2  0  0  0  0
  3 26  1  0  0  0  0
  6 27  1  0  0  0  0
  7 28  1  0  0  0  0
  8 29  1  0  0  0  0
 10 30  1  0  0  0  0
 12 31  1  0  0  0  0
 12 32  1  0  0  0  0
 13 33  1  0  0  0  0
 13 34  1  0  0  0  0
 14 35  1  0  0  0  0
 14 36  1  0  0  0  0
 17 37  1  0  0  0  0
 19 38  1  0  0  0  0
 19 39  1  0  0  0  0
 19 40  1  0  0  0  0
 22 41  1  0  0  0  0
 23 42  1  0  0  0  0
M  END
> <r_user_dG.exp>
-8.36145743731744

$$$$
49
  -OEChem-05162309453D
 Structure written by MMmdl.
 42 44  0     1  0  0  0  0  0999 V2000
    3.7483  -50.0541    7.1170 O   0  0  0  0  0  0  0  0  0  0  0  0
    3.0006  -49.1057    6.7954 C   0  0  0  0  0  0  0  0  0  0  0  0
    3.4290  -47.9343    6.7113 O   0  0  0  0  0  0  0  0  0  0  0  0
    1.5768  -49.4207    6.4879 C   0  0  0  0  0  0  0  0  0  0  0  0
   -0.1297  -50.9210    6.2861 C   0  0  3  0  0  0  0  0  0  0  0  0
   -0.9519  -52.0650    6.2906 C   0  0  0  0  0  0  0  0  0  0  0  0
   -2.3129  -51.9374    5.9451 C   0  0  0  0  0  0  0  0  0  0  0  0
   -2.8209  -50.6854    5.5793 C   0  0  0  0  0  0  0  0  0  0  0  0
   -1.9989  -49.5403    5.5815 C   0  0  0  0  0  0  0  0  0  0  0  0
   -0.6224  -49.6228    5.9597 C   0  0  0  0  0  0  0  0  0  0  0  0
    0.4706  -48.6823    6.1245 C   0  0  0  0  0  0  0  0  0  0  0  0
    0.3811  -47.1915    5.9728 C   0  0  0  0  0  0  0  0  0  0  0  0
   -0.2096  -46.5273    7.2339 C   0  0  0  0  0  0  0  0  0  0  0  0
   -0.7304  -45.1005    6.9792 C   0  0  0  0  0  0  0  0  0  0  0  0
   -1.8882  -45.1382    6.1518 O   0  0  0  0  0  0  0  0  0  0  0  0
   -3.1367  -45.2529    6.7348 C   0  0  0  0  0  0  0  0  0  0  0  0
   -3.3729  -45.5902    8.0931 C   0  0  0  0  0  0  0  0  0  0  0  0
   -4.6916  -45.7161    8.5834 C   0  0  0  0  0  0  0  0  0  0  0  0
   -4.9112  -46.1093   10.0362 C   0  0  0  0  0  0  0  0  0  0  0  0
   -5.7883  -45.5041    7.7218 C   0  0  0  0  0  0  0  0  0  0  0  0
   -7.4049  -45.7013    8.2786 Cl  0  0  0  0  0  0  0  0  0  0  0  0
   -5.5577  -45.1489    6.3816 C   0  0  0  0  0  0  0  0  0  0  0  0
   -4.2425  -45.0326    5.8932 C   0  0  0  0  0  0  0  0  0  0  0  0
   -2.6995  -48.0386    5.1160 Cl  0  0  0  0  0  0  0  0  0  0  0  0
    1.2122  -50.7518    6.5733 N   0  0  0  0  0  0  0  0  0  0  0  0
    4.3549  -47.9193    6.9234 H   0  0  0  0  0  0  0  0  0  0  0  0
    0.1155  -51.0974    5.2284 H   0  0  0  0  0  0  0  0  0  0  0  0
   -0.5441  -53.0293    6.5558 H   0  0  0  0  0  0  0  0  0  0  0  0
   -2.9604  -52.8016    5.9626 H   0  0  0  0  0  0  0  0  0  0  0  0
   -3.8579  -50.5955    5.2912 H   0  0  0  0  0  0  0  0  0  0  0  0
    1.3897  -46.7893    5.7965 H   0  0  0  0  0  0  0  0  0  0  0  0
   -0.2623  -46.9582    5.1117 H   0  0  0  0  0  0  0  0  0  0  0  0
   -1.0446  -47.1450    7.5961 H   0  0  0  0  0  0  0  0  0  0  0  0
    0.5738  -46.4814    8.0047 H   0  0  0  0  0  0  0  0  0  0  0  0
   -0.9862  -44.6305    7.9403 H   0  0  0  0  0  0  0  0  0  0  0  0
    0.0534  -44.5117    6.4802 H   0  0  0  0  0  0  0  0  0  0  0  0
   -2.5370  -45.7520    8.7576 H   0  0  0  0  0  0  0  0  0  0  0  0
   -4.9698  -45.2031   10.6570 H   0  0  0  0  0  0  0  0  0  0  0  0
   -5.8500  -46.6756   10.1248 H   0  0  0  0  0  0  0  0  0  0  0  0
   -4.0726  -46.7339   10.3777 H   0  0  0  0  0  0  0  0  0  0  0  0
   -6.3937  -44.9643    5.7232 H   0  0  0  0  0  0  0  0  0  0  0  0
   -4.0801  -44.7706    4.8581 H   0  0  0  0  0  0  0  0  0  0  0  0
  1  2  2  0  0  0  0
  2  3  1  0  0  0  0
  2  4  1  0  0  0  0
  4 11  1  0  0  0  0
  4 25  2  0  0  0  0
  5  6  1  0  0  0  0
  5 10  1  0  0  0  0
  5 25  1  0  0  0  0
  6  7  2  0  0  0  0
  7  8  1  0  0  0  0
  8  9  2  0  0  0  0
  9 10  1  0  0  0  0
  9 24  1  0  0  0  0
 10 11  2  0  0  0  0
 11 12  1  0  0  0  0
 12 13  1  0  0  0  0
 13 14  1  0  0  0  0
 14 15  1  0  0  0  0
 15 16  1  0  0  0  0
 16 17  2  0  0  0  0
 16 23  1  0  0  0  0
 17 18  1  0  0  0  0
 18 19  1  0  0  0  0
 18 20  2  0  0  0  0
 20 21  1  0  0  0  0
 20 22  1  0  0  0  0
 22 23  2  0  0  0  0
  3 26  1  0  0  0  0
  5 27  1  0  0  0  0
  6 28  1  0  0  0  0
  7 29  1  0  0  0  0
  8 30  1  0  0  0  0
 12 31  1  0  0  0  0
 12 32  1  0  0  0  0
 13 33  1  0  0  0  0
 13 34  1  0  0  0  0
 14 35  1  0  0  0  0
 14 36  1  0  0  0  0
 17 37  1  0  0  0  0
 19 38  1  0  0  0  0
 19 39  1  0  0  0  0
 19 40  1  0  0  0  0
 22 41  1  0  0  0  0
 23 42  1  0  0  0  0
M  END
> <r_user_dG.exp>
-8.36145743731744

$$$$
49
  -OEChem-05162309453D
 Structure written by MMmdl.
 42 44  0     0  0  0  0  0  0999 V2000
    3.7483  -50.0541    7.1170 O   0  0  0  0  0  0  0  0  0  0  0  0
    3.0006  -49.1057    6.7954 C   0  0  0  0  0  0  0  0  0  0  0  0
    3.4290  -47.9343    6.7113 O   0  0  0  0  0  0  0  0  0  0  0  0
    1.5768  -49.4207    6.4879 C   0  0  0  0  0  0  0  0  0  0  0  0
   -0.1297  -50.9210    6.2861 C   0  0  0  0  0  0  0  0  0  0  0  0
   -0.9519  -52.0650    6.2906 C   0  0  0  0  0  0  0  0  0  0  0  0
   -2.3129  -51.9374    5.9451 C   0  0  0  0  0  0  0  0  0  0  0  0
   -2.8209  -50.6854    5.5793 C   0  0  0  0  0  0  0  0  0  0  0  0
   -1.9989  -49.5403    5.5815 C   0  0  0  0  0  0  0  0  0  0  0  0
   -0.6224  -49.6228    5.9597 C   0  0  0  0  0  0  0  0  0  0  0  0
    0.4706  -48.6823    6.1245 C   0  0  0  0  0  0  0  0  0  0  0  0
    0.3811  -47.1915    5.9728 C   0  0  0  0  0  0  0  0  0  0  0  0
   -0.2096  -46.5273    7.2339 C   0  0  0  0  0  0  0  0  0  0  0  0
   -0.7304  -45.1005    6.9792 C   0  0  0  0  0  0  0  0  0  0  0  0
   -1.8882  -45.1382    6.1518 O   0  0  0  0  0  0  0  0  0  0  0  0
   -3.1367  -45.2529    6.7348 C   0  0  0  0  0  0  0  0  0  0  0  0
   -3.3729  -45.5902    8.0931 C   0  0  0  0  0  0  0  0  0  0  0  0
   -4.6916  -45.7161    8.5834 C   0  0  0  0  0  0  0  0  0  0  0  0
   -4.9112  -46.1093   10.0362 C   0  0  0  0  0  0  0  0  0  0  0  0
   -5.7883  -45.5041    7.7218 C   0  0  0  0  0  0  0  0  0  0  0  0
   -7.4049  -45.7013    8.2786 Cl  0  0  0  0  0  0  0  0  0  0  0  0
   -5.5577  -45.1489    6.3816 C   0  0  0  0  0  0  0  0  0  0  0  0
   -4.2425  -45.0326    5.8932 C   0  0  0  0  0  0  0  0  0  0  0  0
   -2.6995  -48.0386    5.1160 Cl  0  0  0  0  0  0  0  0  0  0  0  0
    1.2122  -50.7518    6.5733 N   0  0  0  0  0  0  0  0  0  0  0  0
    4.3549  -47.9193    6.9234 H   0  0  0  0  0  0  0  0  0  0  0  0
   -0.5441  -53.0293    6.5558 H   0  0  0  0  0  0  0  0  0  0  0  0
   -2.4915  -52.6144    5.0967 H   0  0  0  0  0  0  0  0  0  0  0  0
   -2.8958  -52.2767    6.8140 H   0  0  0  0  0  0  0  0  0  0  0  0
   -3.8579  -50.5955    5.2912 H   0  0  0  0  0  0  0  0  0  0  0  0
    1.3897  -46.7893    5.7965 H   0  0  0  0  0  0  0  0  0  0  0  0
   -0.2623  -46.9582    5.1117 H   0  0  0  0  0  0  0  0  0  0  0  0
   -1.0446  -47.1450    7.5961 H   0  0  0  0  0  0  0  0  0  0  0  0
    0.5738  -46.4814    8.0047 H   0  0  0  0  0  0  0  0  0  0  0  0
   -0.9862  -44.6305    7.9403 H   0  0  0  0  0  0  0  0  0  0  0  0
    0.0534  -44.5117    6.4802 H   0  0  0  0  0  0  0  0  0  0  0  0
   -2.5370  -45.7520    8.7576 H   0  0  0  0  0  0  0  0  0  0  0  0
   -4.9698  -45.2031   10.6570 H   0  0  0  0  0  0  0  0  0  0  0  0
   -5.8500  -46.6756   10.1248 H   0  0  0  0  0  0  0  0  0  0  0  0
   -4.0726  -46.7339   10.3777 H   0  0  0  0  0  0  0  0  0  0  0  0
   -6.3937  -44.9643    5.7232 H   0  0  0  0  0  0  0  0  0  0  0  0
   -4.0801  -44.7706    4.8581 H   0  0  0  0  0  0  0  0  0  0  0  0
  1  2  2  0  0  0  0
  2  3  1  0  0  0  0
  2  4  1  0  0  0  0
  4 11  1  0  0  0  0
  4 25  2  0  0  0  0
  5  6  2  0  0  0  0
  5 10  1  0  0  0  0
  5 25  1  0  0  0  0
  6  7  1  0  0  0  0
  7  8  1  0  0  0  0
  8  9  2  0  0  0  0
  9 10  1  0  0  0  0
  9 24  1  0  0  0  0
 10 11  2  0  0  0  0
 11 12  1  0  0  0  0
 12 13  1  0  0  0  0
 13 14  1  0  0  0  0
 14 15  1  0  0  0  0
 15 16  1  0  0  0  0
 16 17  2  0  0  0  0
 16 23  1  0  0  0  0
 17 18  1  0  0  0  0
 18 19  1  0  0  0  0
 18 20  2  0  0  0  0
 20 21  1  0  0  0  0
 20 22  1  0  0  0  0
 22 23  2  0  0  0  0
  3 26  1  0  0  0  0
  6 27  1  0  0  0  0
  7 28  1  0  0  0  0
  7 29  1  0  0  0  0
  8 30  1  0  0  0  0
 12 31  1  0  0  0  0
 12 32  1  0  0  0  0
 13 33  1  0  0  0  0
 13 34  1  0  0  0  0
 14 35  1  0  0  0  0
 14 36  1  0  0  0  0
 17 37  1  0  0  0  0
 19 38  1  0  0  0  0
 19 39  1  0  0  0  0
 19 40  1  0  0  0  0
 22 41  1  0  0  0  0
 23 42  1  0  0  0  0
M  END
> <r_user_dG.exp>
-8.36145743731744

$$$$
49
  -OEChem-05162309453D
 Structure written by MMmdl.
 42 44  0     0  0  0  0  0  0999 V2000
    3.7483  -50.0541    7.1170 O   0  0  0  0  0  0  0  0  0  0  0  0
    3.0006  -49.1057    6.7954 C   0  0  0  0  0  0  0  0  0  0  0  0
    3.4290  -47.9343    6.7113 O   0  0  0  0  0  0  0  0  0  0  0  0
    1.5768  -49.4207    6.4879 C   0  0  0  0  0  0  0  0  0  0  0  0
   -0.1297  -50.9210    6.2861 C   0  0  0  0  0  0  0  0  0  0  0  0
   -0.9519  -52.0650    6.2906 C   0  0  0  0  0  0  0  0  0  0  0  0
   -2.3129  -51.9374    5.9451 C   0  0  0  0  0  0  0  0  0  0  0  0
   -2.8209  -50.6854    5.5793 C   0  0  0  0  0  0  0  0  0  0  0  0
   -1.9989  -49.5403    5.5815 C   0  0  0  0  0  0  0  0  0  0  0  0
   -0.6224  -49.6228    5.9597 C   0  0  0  0  0  0  0  0  0  0  0  0
    0.4706  -48.6823    6.1245 C   0  0  0  0  0  0  0  0  0  0  0  0
    0.3811  -47.1915    5.9728 C   0  0  0  0  0  0  0  0  0  0  0  0
   -0.2096  -46.5273    7.2339 C   0  0  0  0  0  0  0  0  0  0  0  0
   -0.7304  -45.1005    6.9792 C   0  0  0  0  0  0  0  0  0  0  0  0
   -1.8882  -45.1382    6.1518 O   0  0  0  0  0  0  0  0  0  0  0  0
   -3.1367  -45.2529    6.7348 C   0  0  0  0  0  0  0  0  0  0  0  0
   -3.3729  -45.5902    8.0931 C   0  0  0  0  0  0  0  0  0  0  0  0
   -4.6916  -45.7161    8.5834 C   0  0  0  0  0  0  0  0  0  0  0  0
   -4.9112  -46.1093   10.0362 C   0  0  0  0  0  0  0  0  0  0  0  0
   -5.7883  -45.5041    7.7218 C   0  0  0  0  0  0  0  0  0  0  0  0
   -7.4049  -45.7013    8.2786 Cl  0  0  0  0  0  0  0  0  0  0  0  0
   -5.5577  -45.1489    6.3816 C   0  0  0  0  0  0  0  0  0  0  0  0
   -4.2425  -45.0326    5.8932 C   0  0  0  0  0  0  0  0  0  0  0  0
   -2.6995  -48.0386    5.1160 Cl  0  0  0  0  0  0  0  0  0  0  0  0
    1.2122  -50.7518    6.5733 N   0  0  0  0  0  0  0  0  0  0  0  0
    4.3549  -47.9193    6.9234 H   0  0  0  0  0  0  0  0  0  0  0  0
   -0.5075  -52.7825    5.5851 H   0  0  0  0  0  0  0  0  0  0  0  0
   -0.9167  -52.4816    7.3081 H   0  0  0  0  0  0  0  0  0  0  0  0
   -2.9604  -52.8016    5.9626 H   0  0  0  0  0  0  0  0  0  0  0  0
   -3.8579  -50.5955    5.2912 H   0  0  0  0  0  0  0  0  0  0  0  0
    1.3897  -46.7893    5.7965 H   0  0  0  0  0  0  0  0  0  0  0  0
   -0.2623  -46.9582    5.1117 H   0  0  0  0  0  0  0  0  0  0  0  0
   -1.0446  -47.1450    7.5961 H   0  0  0  0  0  0  0  0  0  0  0  0
    0.5738  -46.4814    8.0047 H   0  0  0  0  0  0  0  0  0  0  0  0
   -0.9862  -44.6305    7.9403 H   0  0  0  0  0  0  0  0  0  0  0  0
    0.0534  -44.5117    6.4802 H   0  0  0  0  0  0  0  0  0  0  0  0
   -2.5370  -45.7520    8.7576 H   0  0  0  0  0  0  0  0  0  0  0  0
   -4.9698  -45.2031   10.6570 H   0  0  0  0  0  0  0  0  0  0  0  0
   -5.8500  -46.6756   10.1248 H   0  0  0  0  0  0  0  0  0  0  0  0
   -4.0726  -46.7339   10.3777 H   0  0  0  0  0  0  0  0  0  0  0  0
   -6.3937  -44.9643    5.7232 H   0  0  0  0  0  0  0  0  0  0  0  0
   -4.0801  -44.7706    4.8581 H   0  0  0  0  0  0  0  0  0  0  0  0
  1  2  2  0  0  0  0
  2  3  1  0  0  0  0
  2  4  1  0  0  0  0
  4 11  2  0  0  0  0
  4 25  1  0  0  0  0
  5  6  1  0  0  0  0
  5 10  1  0  0  0  0
  5 25  2  0  0  0  0
  6  7  1  0  0  0  0
  7  8  2  0  0  0  0
  8  9  1  0  0  0  0
  9 10  2  0  0  0  0
  9 24  1  0  0  0  0
 10 11  1  0  0  0  0
 11 12  1  0  0  0  0
 12 13  1  0  0  0  0
 13 14  1  0  0  0  0
 14 15  1  0  0  0  0
 15 16  1  0  0  0  0
 16 17  2  0  0  0  0
 16 23  1  0  0  0  0
 17 18  1  0  0  0  0
 18 19  1  0  0  0  0
 18 20  2  0  0  0  0
 20 21  1  0  0  0  0
 20 22  1  0  0  0  0
 22 23  2  0  0  0  0
  3 26  1  0  0  0  0
  6 27  1  0  0  0  0
  6 28  1  0  0  0  0
  7 29  1  0  0  0  0
  8 30  1  0  0  0  0
 12 31  1  0  0  0  0
 12 32  1  0  0  0  0
 13 33  1  0  0  0  0
 13 34  1  0  0  0  0
 14 35  1  0  0  0  0
 14 36  1  0  0  0  0
 17 37  1  0  0  0  0
 19 38  1  0  0  0  0
 19 39  1  0  0  0  0
 19 40  1  0  0  0  0
 22 41  1  0  0  0  0
 23 42  1  0  0  0  0
M  END
> <r_user_dG.exp>
-8.36145743731744

$$$$
49
  -OEChem-05162309453D
 Structure written by MMmdl.
 42 44  0     0  0  0  0  0  0999 V2000
    3.7483  -50.0541    7.1170 O   0  0  0  0  0  0  0  0  0  0  0  0
    3.0006  -49.1057    6.7954 C   0  0  0  0  0  0  0  0  0  0  0  0
    3.4290  -47.9343    6.7113 O   0  0  0  0  0  0  0  0  0  0  0  0
    1.5768  -49.4207    6.4879 C   0  0  0  0  0  0  0  0  0  0  0  0
   -0.1297  -50.9210    6.2861 C   0  0  0  0  0  0  0  0  0  0  0  0
   -0.9519  -52.0650    6.2906 C   0  0  0  0  0  0  0  0  0  0  0  0
   -2.3129  -51.9374    5.9451 C   0  0  0  0  0  0  0  0  0  0  0  0
   -2.8209  -50.6854    5.5793 C   0  0  0  0  0  0  0  0  0  0  0  0
   -1.9989  -49.5403    5.5815 C   0  0  0  0  0  0  0  0  0  0  0  0
   -0.6224  -49.6228    5.9597 C   0  0  0  0  0  0  0  0  0  0  0  0
    0.4706  -48.6823    6.1245 C   0  0  0  0  0  0  0  0  0  0  0  0
    0.3811  -47.1915    5.9728 C   0  0  0  0  0  0  0  0  0  0  0  0
   -0.2096  -46.5273    7.2339 C   0  0  0  0  0  0  0  0  0  0  0  0
   -0.7304  -45.1005    6.9792 C   0  0  0  0  0  0  0  0  0  0  0  0
   -1.8882  -45.1382    6.1518 O   0  0  0  0  0  0  0  0  0  0  0  0
   -3.1367  -45.2529    6.7348 C   0  0  0  0  0  0  0  0  0  0  0  0
   -3.3729  -45.5902    8.0931 C   0  0  0  0  0  0  0  0  0  0  0  0
   -4.6916  -45.7161    8.5834 C   0  0  0  0  0  0  0  0  0  0  0  0
   -4.9112  -46.1093   10.0362 C   0  0  0  0  0  0  0  0  0  0  0  0
   -5.7883  -45.5041    7.7218 C   0  0  0  0  0  0  0  0  0  0  0  0
   -7.4049  -45.7013    8.2786 Cl  0  0  0  0  0  0  0  0  0  0  0  0
   -5.5577  -45.1489    6.3816 C   0  0  0  0  0  0  0  0  0  0  0  0
   -4.2425  -45.0326    5.8932 C   0  0  0  0  0  0  0  0  0  0  0  0
   -2.6995  -48.0386    5.1160 Cl  0  0  0  0  0  0  0  0  0  0  0  0
    1.2122  -50.7518    6.5733 N   0  0  0  0  0  0  0  0  0  0  0  0
    4.3549  -47.9193    6.9234 H   0  0  0  0  0  0  0  0  0  0  0  0
   -0.5441  -53.0293    6.5558 H   0  0  0  0  0  0  0  0  0  0  0  0
   -2.9604  -52.8016    5.9626 H   0  0  0  0  0  0  0  0  0  0  0  0
   -3.2068  -50.7915    4.5547 H   0  0  0  0  0  0  0  0  0  0  0  0
   -3.6545  -50.4735    6.2650 H   0  0  0  0  0  0  0  0  0  0  0  0
    1.3897  -46.7893    5.7965 H   0  0  0  0  0  0  0  0  0  0  0  0
   -0.2623  -46.9582    5.1117 H   0  0  0  0  0  0  0  0  0  0  0  0
   -1.0446  -47.1450    7.5961 H   0  0  0  0  0  0  0  0  0  0  0  0
    0.5738  -46.4814    8.0047 H   0  0  0  0  0  0  0  0  0  0  0  0
   -0.9862  -44.6305    7.9403 H   0  0  0  0  0  0  0  0  0  0  0  0
    0.0534  -44.5117    6.4802 H   0  0  0  0  0  0  0  0  0  0  0  0
   -2.5370  -45.7520    8.7576 H   0  0  0  0  0  0  0  0  0  0  0  0
   -4.9698  -45.2031   10.6570 H   0  0  0  0  0  0  0  0  0  0  0  0
   -5.8500  -46.6756   10.1248 H   0  0  0  0  0  0  0  0  0  0  0  0
   -4.0726  -46.7339   10.3777 H   0  0  0  0  0  0  0  0  0  0  0  0
   -6.3937  -44.9643    5.7232 H   0  0  0  0  0  0  0  0  0  0  0  0
   -4.0801  -44.7706    4.8581 H   0  0  0  0  0  0  0  0  0  0  0  0
  1  2  2  0  0  0  0
  2  3  1  0  0  0  0
  2  4  1  0  0  0  0
  4 11  2  0  0  0  0
  4 25  1  0  0  0  0
  5  6  1  0  0  0  0
  5 10  1  0  0  0  0
  5 25  2  0  0  0  0
  6  7  2  0  0  0  0
  7  8  1  0  0  0  0
  8  9  1  0  0  0  0
  9 10  2  0  0  0  0
  9 24  1  0  0  0  0
 10 11  1  0  0  0  0
 11 12  1  0  0  0  0
 12 13  1  0  0  0  0
 13 14  1  0  0  0  0
 14 15  1  0  0  0  0
 15 16  1  0  0  0  0
 16 17  2  0  0  0  0
 16 23  1  0  0  0  0
 17 18  1  0  0  0  0
 18 19  1  0  0  0  0
 18 20  2  0  0  0  0
 20 21  1  0  0  0  0
 20 22  1  0  0  0  0
 22 23  2  0  0  0  0
  3 26  1  0  0  0  0
  6 27  1  0  0  0  0
  7 28  1  0  0  0  0
  8 29  1  0  0  0  0
  8 30  1  0  0  0  0
 12 31  1  0  0  0  0
 12 32  1  0  0  0  0
 13 33  1  0  0  0  0
 13 34  1  0  0  0  0
 14 35  1  0  0  0  0
 14 36  1  0  0  0  0
 17 37  1  0  0  0  0
 19 38  1  0  0  0  0
 19 39  1  0  0  0  0
 19 40  1  0  0  0  0
 22 41  1  0  0  0  0
 23 42  1  0  0  0  0
M  END
> <r_user_dG.exp>
-8.36145743731744

$$$$
49
  -OEChem-05162309453D
 Structure written by MMmdl.
 42 44  0     0  0  0  0  0  0999 V2000
    3.7483  -50.0541    7.1170 O   0  0  0  0  0  0  0  0  0  0  0  0
    3.0006  -49.1057    6.7954 C   0  0  0  0  0  0  0  0  0  0  0  0
    3.4290  -47.9343    6.7113 O   0  0  0  0  0  0  0  0  0  0  0  0
    1.5768  -49.4207    6.4879 C   0  0  0  0  0  0  0  0  0  0  0  0
   -0.1297  -50.9210    6.2861 C   0  0  0  0  0  0  0  0  0  0  0  0
   -0.9519  -52.0650    6.2906 C   0  0  0  0  0  0  0  0  0  0  0  0
   -2.3129  -51.9374    5.9451 C   0  0  0  0  0  0  0  0  0  0  0  0
   -2.8209  -50.6854    5.5793 C   0  0  0  0  0  0  0  0  0  0  0  0
   -1.9989  -49.5403    5.5815 C   0  0  0  0  0  0  0  0  0  0  0  0
   -0.6224  -49.6228    5.9597 C   0  0  0  0  0  0  0  0  0  0  0  0
    0.4706  -48.6823    6.1245 C   0  0  0  0  0  0  0  0  0  0  0  0
    0.3811  -47.1915    5.9728 C   0  0  0  0  0  0  0  0  0  0  0  0
   -0.2096  -46.5273    7.2339 C   0  0  0  0  0  0  0  0  0  0  0  0
   -0.7304  -45.1005    6.9792 C   0  0  0  0  0  0  0  0  0  0  0  0
   -1.8882  -45.1382    6.1518 O   0  0  0  0  0  0  0  0  0  0  0  0
   -3.1367  -45.2529    6.7348 C   0  0  0  0  0  0  0  0  0  0  0  0
   -3.3729  -45.5902    8.0931 C   0  0  0  0  0  0  0  0  0  0  0  0
   -4.6916  -45.7161    8.5834 C   0  0  0  0  0  0  0  0  0  0  0  0
   -4.9112  -46.1093   10.0362 C   0  0  0  0  0  0  0  0  0  0  0  0
   -5.7883  -45.5041    7.7218 C   0  0  0  0  0  0  0  0  0  0  0  0
   -7.4049  -45.7013    8.2786 Cl  0  0  0  0  0  0  0  0  0  0  0  0
   -5.5577  -45.1489    6.3816 C   0  0  0  0  0  0  0  0  0  0  0  0
   -4.2425  -45.0326    5.8932 C   0  0  0  0  0  0  0  0  0  0  0  0
   -2.6995  -48.0386    5.1160 Cl  0  0  0  0  0  0  0  0  0  0  0  0
    1.2122  -50.7518    6.5733 N   0  0  0  0  0  0  0  0  0  0  0  0
    3.2488  -50.8621    7.1278 H   0  0  0  0  0  0  0  0  0  0  0  0
    2.7204  -47.3550    6.4565 H   0  0  0  0  0  0  0  0  0  0  0  0
   -0.5441  -53.0293    6.5558 H   0  0  0  0  0  0  0  0  0  0  0  0
   -2.9604  -52.8016    5.9626 H   0  0  0  0  0  0  0  0  0  0  0  0
   -3.8579  -50.5955    5.2912 H   0  0  0  0  0  0  0  0  0  0  0  0
    1.3897  -46.7893    5.7965 H   0  0  0  0  0  0  0  0  0  0  0  0
   -0.2623  -46.9582    5.1117 H   0  0  0  0  0  0  0  0  0  0  0  0
   -1.0446  -47.1450    7.5961 H   0  0  0  0  0  0  0  0  0  0  0  0
    0.5738  -46.4814    8.0047 H   0  0  0  0  0  0  0  0  0  0  0  0
   -0.9862  -44.6305    7.9403 H   0  0  0  0  0  0  0  0  0  0  0  0
    0.0534  -44.5117    6.4802 H   0  0  0  0  0  0  0  0  0  0  0  0
   -2.5370  -45.7520    8.7576 H   0  0  0  0  0  0  0  0  0  0  0  0
   -4.9698  -45.2031   10.6570 H   0  0  0  0  0  0  0  0  0  0  0  0
   -5.8500  -46.6756   10.1248 H   0  0  0  0  0  0  0  0  0  0  0  0
   -4.0726  -46.7339   10.3777 H   0  0  0  0  0  0  0  0  0  0  0  0
   -6.3937  -44.9643    5.7232 H   0  0  0  0  0  0  0  0  0  0  0  0
   -4.0801  -44.7706    4.8581 H   0  0  0  0  0  0  0  0  0  0  0  0
  1  2  1  0  0  0  0
  2  3  1  0  0  0  0
  2  4  2  0  0  0  0
  4 11  1  0  0  0  0
  4 25  1  0  0  0  0
  5  6  1  0  0  0  0
  5 10  1  0  0  0  0
  5 25  2  0  0  0  0
  6  7  2  0  0  0  0
  7  8  1  0  0  0  0
  8  9  2  0  0  0  0
  9 10  1  0  0  0  0
  9 24  1  0  0  0  0
 10 11  2  0  0  0  0
 11 12  1  0  0  0  0
 12 13  1  0  0  0  0
 13 14  1  0  0  0  0
 14 15  1  0  0  0  0
 15 16  1  0  0  0  0
 16 17  2  0  0  0  0
 16 23  1  0  0  0  0
 17 18  1  0  0  0  0
 18 19  1  0  0  0  0
 18 20  2  0  0  0  0
 20 21  1  0  0  0  0
 20 22  1  0  0  0  0
 22 23  2  0  0  0  0
  1 26  1  0  0  0  0
  3 27  1  0  0  0  0
  6 28  1  0  0  0  0
  7 29  1  0  0  0  0
  8 30  1  0  0  0  0
 12 31  1  0  0  0  0
 12 32  1  0  0  0  0
 13 33  1  0  0  0  0
 13 34  1  0  0  0  0
 14 35  1  0  0  0  0
 14 36  1  0  0  0  0
 17 37  1  0  0  0  0
 19 38  1  0  0  0  0
 19 39  1  0  0  0  0
 19 40  1  0  0  0  0
 22 41  1  0  0  0  0
 23 42  1  0  0  0  0
M  END
> <r_user_dG.exp>
-8.36145743731744

$$$$
