47
  -OEChem-05192314073D
 Structure written by MMmdl.
 44 47  0     0  0  0  0  0  0999 V2000
    3.8686  -50.1190    7.0932 O   0  0  0  0  0  0  0  0  0  0  0  0
    3.1190  -49.1589    6.7946 C   0  0  0  0  0  0  0  0  0  0  0  0
    3.5527  -47.9843    6.7208 O   0  0  0  0  0  0  0  0  0  0  0  0
    1.6856  -49.4320    6.5286 C   0  0  0  0  0  0  0  0  0  0  0  0
   -0.0809  -50.8763    6.3515 C   0  0  0  0  0  0  0  0  0  0  0  0
   -0.9511  -51.9836    6.3183 C   0  0  0  0  0  0  0  0  0  0  0  0
   -2.3175  -51.7852    6.0387 C   0  0  0  0  0  0  0  0  0  0  0  0
   -2.8023  -50.4802    5.8114 C   0  0  0  0  0  0  0  0  0  0  0  0
   -1.9249  -49.3776    5.8612 C   0  0  0  0  0  0  0  0  0  0  0  0
   -0.5419  -49.5476    6.1269 C   0  0  0  0  0  0  0  0  0  0  0  0
    0.5818  -48.6544    6.2494 C   0  0  0  0  0  0  0  0  0  0  0  0
    0.5070  -47.1632    6.1421 C   0  0  0  0  0  0  0  0  0  0  0  0
    0.1148  -46.5415    7.4889 C   0  0  0  0  0  0  0  0  0  0  0  0
   -0.4072  -45.1038    7.3461 C   0  0  0  0  0  0  0  0  0  0  0  0
   -1.5468  -45.0525    6.4949 O   0  0  0  0  0  0  0  0  0  0  0  0
   -2.8067  -45.2692    7.0109 C   0  0  0  0  0  0  0  0  0  0  0  0
   -5.2211  -45.1826    6.5885 C   0  0  0  0  0  0  0  0  0  0  0  0
   -3.8922  -45.0084    6.1504 C   0  0  0  0  0  0  0  0  0  0  0  0
   -3.0729  -45.7272    8.3225 C   0  0  0  0  0  0  0  0  0  0  0  0
   -4.4026  -45.9169    8.7511 C   0  0  0  0  0  0  0  0  0  0  0  0
   -5.5002  -45.6402    7.8903 C   0  0  0  0  0  0  0  0  0  0  0  0
   -6.7807  -45.8063    8.2927 N   0  0  0  0  0  0  0  0  0  0  0  0
   -7.0196  -46.2339    9.5524 C   0  0  0  0  0  0  0  0  0  0  0  0
   -5.9967  -46.5463   10.4671 C   0  0  0  0  0  0  0  0  0  0  0  0
   -4.6620  -46.3937   10.0496 C   0  0  0  0  0  0  0  0  0  0  0  0
    1.2731  -50.7546    6.5922 N   0  0  0  0  0  0  0  0  0  0  0  0
    4.4815  -47.9761    6.9201 H   0  0  0  0  0  0  0  0  0  0  0  0
   -0.5733  -52.9778    6.5059 H   0  0  0  0  0  0  0  0  0  0  0  0
   -2.9909  -52.6286    5.9986 H   0  0  0  0  0  0  0  0  0  0  0  0
   -3.8496  -50.3250    5.5984 H   0  0  0  0  0  0  0  0  0  0  0  0
   -2.3135  -48.3839    5.6937 H   0  0  0  0  0  0  0  0  0  0  0  0
    1.4893  -46.7734    5.8369 H   0  0  0  0  0  0  0  0  0  0  0  0
   -0.2456  -46.8928    5.3868 H   0  0  0  0  0  0  0  0  0  0  0  0
   -0.6729  -47.1586    7.9457 H   0  0  0  0  0  0  0  0  0  0  0  0
    0.9989  -46.5320    8.1433 H   0  0  0  0  0  0  0  0  0  0  0  0
   -0.6841  -44.7222    8.3399 H   0  0  0  0  0  0  0  0  0  0  0  0
    0.3877  -44.4741    6.9199 H   0  0  0  0  0  0  0  0  0  0  0  0
   -6.0366  -44.9618    5.9157 H   0  0  0  0  0  0  0  0  0  0  0  0
   -3.7036  -44.6706    5.1421 H   0  0  0  0  0  0  0  0  0  0  0  0
   -2.2552  -45.9322    8.9976 H   0  0  0  0  0  0  0  0  0  0  0  0
   -8.0454  -46.3411    9.8726 H   0  0  0  0  0  0  0  0  0  0  0  0
   -6.2301  -46.8938   11.4627 H   0  0  0  0  0  0  0  0  0  0  0  0
   -3.8482  -46.6389   10.7159 H   0  0  0  0  0  0  0  0  0  0  0  0
    1.8808  -51.5243    6.7880 H   0  0  0  0  0  0  0  0  0  0  0  0
  1  2  2  0  0  0  0
  2  3  1  0  0  0  0
  2  4  1  0  0  0  0
  4 11  2  0  0  0  0
  4 26  1  0  0  0  0
  5  6  2  0  0  0  0
  5 10  1  0  0  0  0
  5 26  1  0  0  0  0
  6  7  1  0  0  0  0
  7  8  2  0  0  0  0
  8  9  1  0  0  0  0
  9 10  2  0  0  0  0
 10 11  1  0  0  0  0
 11 12  1  0  0  0  0
 12 13  1  0  0  0  0
 13 14  1  0  0  0  0
 14 15  1  0  0  0  0
 15 16  1  0  0  0  0
 16 18  2  0  0  0  0
 16 19  1  0  0  0  0
 17 18  1  0  0  0  0
 17 21  2  0  0  0  0
 19 20  2  0  0  0  0
 20 21  1  0  0  0  0
 20 25  1  0  0  0  0
 21 22  1  0  0  0  0
 22 23  2  0  0  0  0
 23 24  1  0  0  0  0
 24 25  2  0  0  0  0
  3 27  1  0  0  0  0
  6 28  1  0  0  0  0
  7 29  1  0  0  0  0
  8 30  1  0  0  0  0
  9 31  1  0  0  0  0
 12 32  1  0  0  0  0
 12 33  1  0  0  0  0
 13 34  1  0  0  0  0
 13 35  1  0  0  0  0
 14 36  1  0  0  0  0
 14 37  1  0  0  0  0
 17 38  1  0  0  0  0
 18 39  1  0  0  0  0
 19 40  1  0  0  0  0
 23 41  1  0  0  0  0
 24 42  1  0  0  0  0
 25 43  1  0  0  0  0
 26 44  1  0  0  0  0
M  END
> <r_user_dG.exp>
-5.77553168796231

$$$$
47
  -OEChem-05192314073D
 Structure written by MMmdl.
 44 47  0     1  0  0  0  0  0999 V2000
    3.8686  -50.1190    7.0932 O   0  0  0  0  0  0  0  0  0  0  0  0
    3.1190  -49.1589    6.7946 C   0  0  0  0  0  0  0  0  0  0  0  0
    3.5527  -47.9843    6.7208 O   0  0  0  0  0  0  0  0  0  0  0  0
    1.6856  -49.4320    6.5286 C   0  0  0  0  0  0  0  0  0  0  0  0
   -0.0809  -50.8763    6.3515 C   0  0  0  0  0  0  0  0  0  0  0  0
   -0.9511  -51.9836    6.3183 C   0  0  0  0  0  0  0  0  0  0  0  0
   -2.3175  -51.7852    6.0387 C   0  0  0  0  0  0  0  0  0  0  0  0
   -2.8023  -50.4802    5.8114 C   0  0  0  0  0  0  0  0  0  0  0  0
   -1.9249  -49.3776    5.8612 C   0  0  0  0  0  0  0  0  0  0  0  0
   -0.5419  -49.5476    6.1269 C   0  0  0  0  0  0  0  0  0  0  0  0
    0.5818  -48.6544    6.2494 C   0  0  3  0  0  0  0  0  0  0  0  0
    0.5070  -47.1632    6.1421 C   0  0  0  0  0  0  0  0  0  0  0  0
    0.1148  -46.5415    7.4889 C   0  0  0  0  0  0  0  0  0  0  0  0
   -0.4072  -45.1038    7.3461 C   0  0  0  0  0  0  0  0  0  0  0  0
   -1.5468  -45.0525    6.4949 O   0  0  0  0  0  0  0  0  0  0  0  0
   -2.8067  -45.2692    7.0109 C   0  0  0  0  0  0  0  0  0  0  0  0
   -5.2211  -45.1826    6.5885 C   0  0  0  0  0  0  0  0  0  0  0  0
   -3.8922  -45.0084    6.1504 C   0  0  0  0  0  0  0  0  0  0  0  0
   -3.0729  -45.7272    8.3225 C   0  0  0  0  0  0  0  0  0  0  0  0
   -4.4026  -45.9169    8.7511 C   0  0  0  0  0  0  0  0  0  0  0  0
   -5.5002  -45.6402    7.8903 C   0  0  0  0  0  0  0  0  0  0  0  0
   -6.7807  -45.8063    8.2927 N   0  0  0  0  0  0  0  0  0  0  0  0
   -7.0196  -46.2339    9.5524 C   0  0  0  0  0  0  0  0  0  0  0  0
   -5.9967  -46.5463   10.4671 C   0  0  0  0  0  0  0  0  0  0  0  0
   -4.6620  -46.3937   10.0496 C   0  0  0  0  0  0  0  0  0  0  0  0
    1.2731  -50.7546    6.5922 N   0  0  0  0  0  0  0  0  0  0  0  0
    4.4815  -47.9761    6.9201 H   0  0  0  0  0  0  0  0  0  0  0  0
   -0.5733  -52.9778    6.5059 H   0  0  0  0  0  0  0  0  0  0  0  0
   -2.9909  -52.6286    5.9986 H   0  0  0  0  0  0  0  0  0  0  0  0
   -3.8496  -50.3250    5.5984 H   0  0  0  0  0  0  0  0  0  0  0  0
   -2.3135  -48.3839    5.6937 H   0  0  0  0  0  0  0  0  0  0  0  0
    0.7805  -48.7350    5.1705 H   0  0  0  0  0  0  0  0  0  0  0  0
    1.4893  -46.7734    5.8369 H   0  0  0  0  0  0  0  0  0  0  0  0
   -0.2456  -46.8928    5.3868 H   0  0  0  0  0  0  0  0  0  0  0  0
   -0.6729  -47.1586    7.9457 H   0  0  0  0  0  0  0  0  0  0  0  0
    0.9989  -46.5320    8.1433 H   0  0  0  0  0  0  0  0  0  0  0  0
   -0.6841  -44.7222    8.3399 H   0  0  0  0  0  0  0  0  0  0  0  0
    0.3877  -44.4741    6.9199 H   0  0  0  0  0  0  0  0  0  0  0  0
   -6.0366  -44.9618    5.9157 H   0  0  0  0  0  0  0  0  0  0  0  0
   -3.7036  -44.6706    5.1421 H   0  0  0  0  0  0  0  0  0  0  0  0
   -2.2552  -45.9322    8.9976 H   0  0  0  0  0  0  0  0  0  0  0  0
   -8.0454  -46.3411    9.8726 H   0  0  0  0  0  0  0  0  0  0  0  0
   -6.2301  -46.8938   11.4627 H   0  0  0  0  0  0  0  0  0  0  0  0
   -3.8482  -46.6389   10.7159 H   0  0  0  0  0  0  0  0  0  0  0  0
  1  2  2  0  0  0  0
  2  3  1  0  0  0  0
  2  4  1  0  0  0  0
  4 11  1  0  0  0  0
  4 26  2  0  0  0  0
  5  6  2  0  0  0  0
  5 10  1  0  0  0  0
  5 26  1  0  0  0  0
  6  7  1  0  0  0  0
  7  8  2  0  0  0  0
  8  9  1  0  0  0  0
  9 10  2  0  0  0  0
 10 11  1  0  0  0  0
 11 12  1  0  0  0  0
 12 13  1  0  0  0  0
 13 14  1  0  0  0  0
 14 15  1  0  0  0  0
 15 16  1  0  0  0  0
 16 18  2  0  0  0  0
 16 19  1  0  0  0  0
 17 18  1  0  0  0  0
 17 21  2  0  0  0  0
 19 20  2  0  0  0  0
 20 21  1  0  0  0  0
 20 25  1  0  0  0  0
 21 22  1  0  0  0  0
 22 23  2  0  0  0  0
 23 24  1  0  0  0  0
 24 25  2  0  0  0  0
  3 27  1  0  0  0  0
  6 28  1  0  0  0  0
  7 29  1  0  0  0  0
  8 30  1  0  0  0  0
  9 31  1  0  0  0  0
 11 32  1  0  0  0  0
 12 33  1  0  0  0  0
 12 34  1  0  0  0  0
 13 35  1  0  0  0  0
 13 36  1  0  0  0  0
 14 37  1  0  0  0  0
 14 38  1  0  0  0  0
 17 39  1  0  0  0  0
 18 40  1  0  0  0  0
 19 41  1  0  0  0  0
 23 42  1  0  0  0  0
 24 43  1  0  0  0  0
 25 44  1  0  0  0  0
M  END
> <r_user_dG.exp>
-5.77553168796231

$$$$
47
  -OEChem-05192314073D
 Structure written by MMmdl.
 44 47  0     1  0  0  0  0  0999 V2000
    3.8686  -50.1190    7.0932 O   0  0  0  0  0  0  0  0  0  0  0  0
    3.1190  -49.1589    6.7946 C   0  0  0  0  0  0  0  0  0  0  0  0
    3.5527  -47.9843    6.7208 O   0  0  0  0  0  0  0  0  0  0  0  0
    1.6856  -49.4320    6.5286 C   0  0  3  0  0  0  0  0  0  0  0  0
   -0.0809  -50.8763    6.3515 C   0  0  0  0  0  0  0  0  0  0  0  0
   -0.9511  -51.9836    6.3183 C   0  0  0  0  0  0  0  0  0  0  0  0
   -2.3175  -51.7852    6.0387 C   0  0  0  0  0  0  0  0  0  0  0  0
   -2.8023  -50.4802    5.8114 C   0  0  0  0  0  0  0  0  0  0  0  0
   -1.9249  -49.3776    5.8612 C   0  0  0  0  0  0  0  0  0  0  0  0
   -0.5419  -49.5476    6.1269 C   0  0  0  0  0  0  0  0  0  0  0  0
    0.5818  -48.6544    6.2494 C   0  0  0  0  0  0  0  0  0  0  0  0
    0.5070  -47.1632    6.1421 C   0  0  0  0  0  0  0  0  0  0  0  0
    0.1148  -46.5415    7.4889 C   0  0  0  0  0  0  0  0  0  0  0  0
   -0.4072  -45.1038    7.3461 C   0  0  0  0  0  0  0  0  0  0  0  0
   -1.5468  -45.0525    6.4949 O   0  0  0  0  0  0  0  0  0  0  0  0
   -2.8067  -45.2692    7.0109 C   0  0  0  0  0  0  0  0  0  0  0  0
   -5.2211  -45.1826    6.5885 C   0  0  0  0  0  0  0  0  0  0  0  0
   -3.8922  -45.0084    6.1504 C   0  0  0  0  0  0  0  0  0  0  0  0
   -3.0729  -45.7272    8.3225 C   0  0  0  0  0  0  0  0  0  0  0  0
   -4.4026  -45.9169    8.7511 C   0  0  0  0  0  0  0  0  0  0  0  0
   -5.5002  -45.6402    7.8903 C   0  0  0  0  0  0  0  0  0  0  0  0
   -6.7807  -45.8063    8.2927 N   0  0  0  0  0  0  0  0  0  0  0  0
   -7.0196  -46.2339    9.5524 C   0  0  0  0  0  0  0  0  0  0  0  0
   -5.9967  -46.5463   10.4671 C   0  0  0  0  0  0  0  0  0  0  0  0
   -4.6620  -46.3937   10.0496 C   0  0  0  0  0  0  0  0  0  0  0  0
    1.2731  -50.7546    6.5922 N   0  0  0  0  0  0  0  0  0  0  0  0
    4.4815  -47.9761    6.9201 H   0  0  0  0  0  0  0  0  0  0  0  0
    1.8954  -49.5383    5.4540 H   0  0  0  0  0  0  0  0  0  0  0  0
   -0.5733  -52.9778    6.5059 H   0  0  0  0  0  0  0  0  0  0  0  0
   -2.9909  -52.6286    5.9986 H   0  0  0  0  0  0  0  0  0  0  0  0
   -3.8496  -50.3250    5.5984 H   0  0  0  0  0  0  0  0  0  0  0  0
   -2.3135  -48.3839    5.6937 H   0  0  0  0  0  0  0  0  0  0  0  0
    1.4893  -46.7734    5.8369 H   0  0  0  0  0  0  0  0  0  0  0  0
   -0.2456  -46.8928    5.3868 H   0  0  0  0  0  0  0  0  0  0  0  0
   -0.6729  -47.1586    7.9457 H   0  0  0  0  0  0  0  0  0  0  0  0
    0.9989  -46.5320    8.1433 H   0  0  0  0  0  0  0  0  0  0  0  0
   -0.6841  -44.7222    8.3399 H   0  0  0  0  0  0  0  0  0  0  0  0
    0.3877  -44.4741    6.9199 H   0  0  0  0  0  0  0  0  0  0  0  0
   -6.0366  -44.9618    5.9157 H   0  0  0  0  0  0  0  0  0  0  0  0
   -3.7036  -44.6706    5.1421 H   0  0  0  0  0  0  0  0  0  0  0  0
   -2.2552  -45.9322    8.9976 H   0  0  0  0  0  0  0  0  0  0  0  0
   -8.0454  -46.3411    9.8726 H   0  0  0  0  0  0  0  0  0  0  0  0
   -6.2301  -46.8938   11.4627 H   0  0  0  0  0  0  0  0  0  0  0  0
   -3.8482  -46.6389   10.7159 H   0  0  0  0  0  0  0  0  0  0  0  0
  1  2  2  0  0  0  0
  2  3  1  0  0  0  0
  2  4  1  0  0  0  0
  4 11  1  0  0  0  0
  4 26  1  0  0  0  0
  5  6  1  0  0  0  0
  5 10  1  0  0  0  0
  5 26  2  0  0  0  0
  6  7  2  0  0  0  0
  7  8  1  0  0  0  0
  8  9  2  0  0  0  0
  9 10  1  0  0  0  0
 10 11  2  0  0  0  0
 11 12  1  0  0  0  0
 12 13  1  0  0  0  0
 13 14  1  0  0  0  0
 14 15  1  0  0  0  0
 15 16  1  0  0  0  0
 16 18  2  0  0  0  0
 16 19  1  0  0  0  0
 17 18  1  0  0  0  0
 17 21  2  0  0  0  0
 19 20  2  0  0  0  0
 20 21  1  0  0  0  0
 20 25  1  0  0  0  0
 21 22  1  0  0  0  0
 22 23  2  0  0  0  0
 23 24  1  0  0  0  0
 24 25  2  0  0  0  0
  3 27  1  0  0  0  0
  4 28  1  0  0  0  0
  6 29  1  0  0  0  0
  7 30  1  0  0  0  0
  8 31  1  0  0  0  0
  9 32  1  0  0  0  0
 12 33  1  0  0  0  0
 12 34  1  0  0  0  0
 13 35  1  0  0  0  0
 13 36  1  0  0  0  0
 14 37  1  0  0  0  0
 14 38  1  0  0  0  0
 17 39  1  0  0  0  0
 18 40  1  0  0  0  0
 19 41  1  0  0  0  0
 23 42  1  0  0  0  0
 24 43  1  0  0  0  0
 25 44  1  0  0  0  0
M  END
> <r_user_dG.exp>
-5.77553168796231

$$$$
47
  -OEChem-05192314073D
 Structure written by MMmdl.
 44 47  0     1  0  0  0  0  0999 V2000
    3.8686  -50.1190    7.0932 O   0  0  0  0  0  0  0  0  0  0  0  0
    3.1190  -49.1589    6.7946 C   0  0  0  0  0  0  0  0  0  0  0  0
    3.5527  -47.9843    6.7208 O   0  0  0  0  0  0  0  0  0  0  0  0
    1.6856  -49.4320    6.5286 C   0  0  0  0  0  0  0  0  0  0  0  0
   -0.0809  -50.8763    6.3515 C   0  0  0  0  0  0  0  0  0  0  0  0
   -0.9511  -51.9836    6.3183 C   0  0  0  0  0  0  0  0  0  0  0  0
   -2.3175  -51.7852    6.0387 C   0  0  0  0  0  0  0  0  0  0  0  0
   -2.8023  -50.4802    5.8114 C   0  0  0  0  0  0  0  0  0  0  0  0
   -1.9249  -49.3776    5.8612 C   0  0  0  0  0  0  0  0  0  0  0  0
   -0.5419  -49.5476    6.1269 C   0  0  3  0  0  0  0  0  0  0  0  0
    0.5818  -48.6544    6.2494 C   0  0  0  0  0  0  0  0  0  0  0  0
    0.5070  -47.1632    6.1421 C   0  0  0  0  0  0  0  0  0  0  0  0
    0.1148  -46.5415    7.4889 C   0  0  0  0  0  0  0  0  0  0  0  0
   -0.4072  -45.1038    7.3461 C   0  0  0  0  0  0  0  0  0  0  0  0
   -1.5468  -45.0525    6.4949 O   0  0  0  0  0  0  0  0  0  0  0  0
   -2.8067  -45.2692    7.0109 C   0  0  0  0  0  0  0  0  0  0  0  0
   -5.2211  -45.1826    6.5885 C   0  0  0  0  0  0  0  0  0  0  0  0
   -3.8922  -45.0084    6.1504 C   0  0  0  0  0  0  0  0  0  0  0  0
   -3.0729  -45.7272    8.3225 C   0  0  0  0  0  0  0  0  0  0  0  0
   -4.4026  -45.9169    8.7511 C   0  0  0  0  0  0  0  0  0  0  0  0
   -5.5002  -45.6402    7.8903 C   0  0  0  0  0  0  0  0  0  0  0  0
   -6.7807  -45.8063    8.2927 N   0  0  0  0  0  0  0  0  0  0  0  0
   -7.0196  -46.2339    9.5524 C   0  0  0  0  0  0  0  0  0  0  0  0
   -5.9967  -46.5463   10.4671 C   0  0  0  0  0  0  0  0  0  0  0  0
   -4.6620  -46.3937   10.0496 C   0  0  0  0  0  0  0  0  0  0  0  0
    1.2731  -50.7546    6.5922 N   0  0  0  0  0  0  0  0  0  0  0  0
    4.4815  -47.9761    6.9201 H   0  0  0  0  0  0  0  0  0  0  0  0
   -0.5733  -52.9778    6.5059 H   0  0  0  0  0  0  0  0  0  0  0  0
   -2.9909  -52.6286    5.9986 H   0  0  0  0  0  0  0  0  0  0  0  0
   -3.8496  -50.3250    5.5984 H   0  0  0  0  0  0  0  0  0  0  0  0
   -2.3135  -48.3839    5.6937 H   0  0  0  0  0  0  0  0  0  0  0  0
   -0.3439  -49.6561    5.0503 H   0  0  0  0  0  0  0  0  0  0  0  0
    1.4893  -46.7734    5.8369 H   0  0  0  0  0  0  0  0  0  0  0  0
   -0.2456  -46.8928    5.3868 H   0  0  0  0  0  0  0  0  0  0  0  0
   -0.6729  -47.1586    7.9457 H   0  0  0  0  0  0  0  0  0  0  0  0
    0.9989  -46.5320    8.1433 H   0  0  0  0  0  0  0  0  0  0  0  0
   -0.6841  -44.7222    8.3399 H   0  0  0  0  0  0  0  0  0  0  0  0
    0.3877  -44.4741    6.9199 H   0  0  0  0  0  0  0  0  0  0  0  0
   -6.0366  -44.9618    5.9157 H   0  0  0  0  0  0  0  0  0  0  0  0
   -3.7036  -44.6706    5.1421 H   0  0  0  0  0  0  0  0  0  0  0  0
   -2.2552  -45.9322    8.9976 H   0  0  0  0  0  0  0  0  0  0  0  0
   -8.0454  -46.3411    9.8726 H   0  0  0  0  0  0  0  0  0  0  0  0
   -6.2301  -46.8938   11.4627 H   0  0  0  0  0  0  0  0  0  0  0  0
   -3.8482  -46.6389   10.7159 H   0  0  0  0  0  0  0  0  0  0  0  0
  1  2  2  0  0  0  0
  2  3  1  0  0  0  0
  2  4  1  0  0  0  0
  4 11  2  0  0  0  0
  4 26  1  0  0  0  0
  5  6  1  0  0  0  0
  5 10  1  0  0  0  0
  5 26  2  0  0  0  0
  6  7  2  0  0  0  0
  7  8  1  0  0  0  0
  8  9  2  0  0  0  0
  9 10  1  0  0  0  0
 10 11  1  0  0  0  0
 11 12  1  0  0  0  0
 12 13  1  0  0  0  0
 13 14  1  0  0  0  0
 14 15  1  0  0  0  0
 15 16  1  0  0  0  0
 16 18  2  0  0  0  0
 16 19  1  0  0  0  0
 17 18  1  0  0  0  0
 17 21  2  0  0  0  0
 19 20  2  0  0  0  0
 20 21  1  0  0  0  0
 20 25  1  0  0  0  0
 21 22  1  0  0  0  0
 22 23  2  0  0  0  0
 23 24  1  0  0  0  0
 24 25  2  0  0  0  0
  3 27  1  0  0  0  0
  6 28  1  0  0  0  0
  7 29  1  0  0  0  0
  8 30  1  0  0  0  0
  9 31  1  0  0  0  0
 10 32  1  0  0  0  0
 12 33  1  0  0  0  0
 12 34  1  0  0  0  0
 13 35  1  0  0  0  0
 13 36  1  0  0  0  0
 14 37  1  0  0  0  0
 14 38  1  0  0  0  0
 17 39  1  0  0  0  0
 18 40  1  0  0  0  0
 19 41  1  0  0  0  0
 23 42  1  0  0  0  0
 24 43  1  0  0  0  0
 25 44  1  0  0  0  0
M  END
> <r_user_dG.exp>
-5.77553168796231

$$$$
47
  -OEChem-05192314073D
 Structure written by MMmdl.
 44 47  0     1  0  0  0  0  0999 V2000
    3.8686  -50.1190    7.0932 O   0  0  0  0  0  0  0  0  0  0  0  0
    3.1190  -49.1589    6.7946 C   0  0  0  0  0  0  0  0  0  0  0  0
    3.5527  -47.9843    6.7208 O   0  0  0  0  0  0  0  0  0  0  0  0
    1.6856  -49.4320    6.5286 C   0  0  0  0  0  0  0  0  0  0  0  0
   -0.0809  -50.8763    6.3515 C   0  0  3  0  0  0  0  0  0  0  0  0
   -0.9511  -51.9836    6.3183 C   0  0  0  0  0  0  0  0  0  0  0  0
   -2.3175  -51.7852    6.0387 C   0  0  0  0  0  0  0  0  0  0  0  0
   -2.8023  -50.4802    5.8114 C   0  0  0  0  0  0  0  0  0  0  0  0
   -1.9249  -49.3776    5.8612 C   0  0  0  0  0  0  0  0  0  0  0  0
   -0.5419  -49.5476    6.1269 C   0  0  0  0  0  0  0  0  0  0  0  0
    0.5818  -48.6544    6.2494 C   0  0  0  0  0  0  0  0  0  0  0  0
    0.5070  -47.1632    6.1421 C   0  0  0  0  0  0  0  0  0  0  0  0
    0.1148  -46.5415    7.4889 C   0  0  0  0  0  0  0  0  0  0  0  0
   -0.4072  -45.1038    7.3461 C   0  0  0  0  0  0  0  0  0  0  0  0
   -1.5468  -45.0525    6.4949 O   0  0  0  0  0  0  0  0  0  0  0  0
   -2.8067  -45.2692    7.0109 C   0  0  0  0  0  0  0  0  0  0  0  0
   -5.2211  -45.1826    6.5885 C   0  0  0  0  0  0  0  0  0  0  0  0
   -3.8922  -45.0084    6.1504 C   0  0  0  0  0  0  0  0  0  0  0  0
   -3.0729  -45.7272    8.3225 C   0  0  0  0  0  0  0  0  0  0  0  0
   -4.4026  -45.9169    8.7511 C   0  0  0  0  0  0  0  0  0  0  0  0
   -5.5002  -45.6402    7.8903 C   0  0  0  0  0  0  0  0  0  0  0  0
   -6.7807  -45.8063    8.2927 N   0  0  0  0  0  0  0  0  0  0  0  0
   -7.0196  -46.2339    9.5524 C   0  0  0  0  0  0  0  0  0  0  0  0
   -5.9967  -46.5463   10.4671 C   0  0  0  0  0  0  0  0  0  0  0  0
   -4.6620  -46.3937   10.0496 C   0  0  0  0  0  0  0  0  0  0  0  0
    1.2731  -50.7546    6.5922 N   0  0  0  0  0  0  0  0  0  0  0  0
    4.4815  -47.9761    6.9201 H   0  0  0  0  0  0  0  0  0  0  0  0
    0.1166  -50.9940    5.2758 H   0  0  0  0  0  0  0  0  0  0  0  0
   -0.5733  -52.9778    6.5059 H   0  0  0  0  0  0  0  0  0  0  0  0
   -2.9909  -52.6286    5.9986 H   0  0  0  0  0  0  0  0  0  0  0  0
   -3.8496  -50.3250    5.5984 H   0  0  0  0  0  0  0  0  0  0  0  0
   -2.3135  -48.3839    5.6937 H   0  0  0  0  0  0  0  0  0  0  0  0
    1.4893  -46.7734    5.8369 H   0  0  0  0  0  0  0  0  0  0  0  0
   -0.2456  -46.8928    5.3868 H   0  0  0  0  0  0  0  0  0  0  0  0
   -0.6729  -47.1586    7.9457 H   0  0  0  0  0  0  0  0  0  0  0  0
    0.9989  -46.5320    8.1433 H   0  0  0  0  0  0  0  0  0  0  0  0
   -0.6841  -44.7222    8.3399 H   0  0  0  0  0  0  0  0  0  0  0  0
    0.3877  -44.4741    6.9199 H   0  0  0  0  0  0  0  0  0  0  0  0
   -6.0366  -44.9618    5.9157 H   0  0  0  0  0  0  0  0  0  0  0  0
   -3.7036  -44.6706    5.1421 H   0  0  0  0  0  0  0  0  0  0  0  0
   -2.2552  -45.9322    8.9976 H   0  0  0  0  0  0  0  0  0  0  0  0
   -8.0454  -46.3411    9.8726 H   0  0  0  0  0  0  0  0  0  0  0  0
   -6.2301  -46.8938   11.4627 H   0  0  0  0  0  0  0  0  0  0  0  0
   -3.8482  -46.6389   10.7159 H   0  0  0  0  0  0  0  0  0  0  0  0
  1  2  2  0  0  0  0
  2  3  1  0  0  0  0
  2  4  1  0  0  0  0
  4 11  1  0  0  0  0
  4 26  2  0  0  0  0
  5  6  1  0  0  0  0
  5 10  1  0  0  0  0
  5 26  1  0  0  0  0
  6  7  2  0  0  0  0
  7  8  1  0  0  0  0
  8  9  2  0  0  0  0
  9 10  1  0  0  0  0
 10 11  2  0  0  0  0
 11 12  1  0  0  0  0
 12 13  1  0  0  0  0
 13 14  1  0  0  0  0
 14 15  1  0  0  0  0
 15 16  1  0  0  0  0
 16 18  2  0  0  0  0
 16 19  1  0  0  0  0
 17 18  1  0  0  0  0
 17 21  2  0  0  0  0
 19 20  2  0  0  0  0
 20 21  1  0  0  0  0
 20 25  1  0  0  0  0
 21 22  1  0  0  0  0
 22 23  2  0  0  0  0
 23 24  1  0  0  0  0
 24 25  2  0  0  0  0
  3 27  1  0  0  0  0
  5 28  1  0  0  0  0
  6 29  1  0  0  0  0
  7 30  1  0  0  0  0
  8 31  1  0  0  0  0
  9 32  1  0  0  0  0
 12 33  1  0  0  0  0
 12 34  1  0  0  0  0
 13 35  1  0  0  0  0
 13 36  1  0  0  0  0
 14 37  1  0  0  0  0
 14 38  1  0  0  0  0
 17 39  1  0  0  0  0
 18 40  1  0  0  0  0
 19 41  1  0  0  0  0
 23 42  1  0  0  0  0
 24 43  1  0  0  0  0
 25 44  1  0  0  0  0
M  END
> <r_user_dG.exp>
-5.77553168796231

$$$$
47
  -OEChem-05192314073D
 Structure written by MMmdl.
 44 47  0     0  0  0  0  0  0999 V2000
    3.8686  -50.1190    7.0932 O   0  0  0  0  0  0  0  0  0  0  0  0
    3.1190  -49.1589    6.7946 C   0  0  0  0  0  0  0  0  0  0  0  0
    3.5527  -47.9843    6.7208 O   0  0  0  0  0  0  0  0  0  0  0  0
    1.6856  -49.4320    6.5286 C   0  0  0  0  0  0  0  0  0  0  0  0
   -0.0809  -50.8763    6.3515 C   0  0  0  0  0  0  0  0  0  0  0  0
   -0.9511  -51.9836    6.3183 C   0  0  0  0  0  0  0  0  0  0  0  0
   -2.3175  -51.7852    6.0387 C   0  0  0  0  0  0  0  0  0  0  0  0
   -2.8023  -50.4802    5.8114 C   0  0  0  0  0  0  0  0  0  0  0  0
   -1.9249  -49.3776    5.8612 C   0  0  0  0  0  0  0  0  0  0  0  0
   -0.5419  -49.5476    6.1269 C   0  0  0  0  0  0  0  0  0  0  0  0
    0.5818  -48.6544    6.2494 C   0  0  0  0  0  0  0  0  0  0  0  0
    0.5070  -47.1632    6.1421 C   0  0  0  0  0  0  0  0  0  0  0  0
    0.1148  -46.5415    7.4889 C   0  0  0  0  0  0  0  0  0  0  0  0
   -0.4072  -45.1038    7.3461 C   0  0  0  0  0  0  0  0  0  0  0  0
   -1.5468  -45.0525    6.4949 O   0  0  0  0  0  0  0  0  0  0  0  0
   -2.8067  -45.2692    7.0109 C   0  0  0  0  0  0  0  0  0  0  0  0
   -5.2211  -45.1826    6.5885 C   0  0  0  0  0  0  0  0  0  0  0  0
   -3.8922  -45.0084    6.1504 C   0  0  0  0  0  0  0  0  0  0  0  0
   -3.0729  -45.7272    8.3225 C   0  0  0  0  0  0  0  0  0  0  0  0
   -4.4026  -45.9169    8.7511 C   0  0  0  0  0  0  0  0  0  0  0  0
   -5.5002  -45.6402    7.8903 C   0  0  0  0  0  0  0  0  0  0  0  0
   -6.7807  -45.8063    8.2927 N   0  0  0  0  0  0  0  0  0  0  0  0
   -7.0196  -46.2339    9.5524 C   0  0  0  0  0  0  0  0  0  0  0  0
   -5.9967  -46.5463   10.4671 C   0  0  0  0  0  0  0  0  0  0  0  0
   -4.6620  -46.3937   10.0496 C   0  0  0  0  0  0  0  0  0  0  0  0
    1.2731  -50.7546    6.5922 N   0  0  0  0  0  0  0  0  0  0  0  0
    4.4815  -47.9761    6.9201 H   0  0  0  0  0  0  0  0  0  0  0  0
   -0.5733  -52.9778    6.5059 H   0  0  0  0  0  0  0  0  0  0  0  0
   -2.9909  -52.6286    5.9986 H   0  0  0  0  0  0  0  0  0  0  0  0
   -3.2532  -50.4806    4.8081 H   0  0  0  0  0  0  0  0  0  0  0  0
   -3.5832  -50.2973    6.5642 H   0  0  0  0  0  0  0  0  0  0  0  0
   -2.3135  -48.3839    5.6937 H   0  0  0  0  0  0  0  0  0  0  0  0
    1.4893  -46.7734    5.8369 H   0  0  0  0  0  0  0  0  0  0  0  0
   -0.2456  -46.8928    5.3868 H   0  0  0  0  0  0  0  0  0  0  0  0
   -0.6729  -47.1586    7.9457 H   0  0  0  0  0  0  0  0  0  0  0  0
    0.9989  -46.5320    8.1433 H   0  0  0  0  0  0  0  0  0  0  0  0
   -0.6841  -44.7222    8.3399 H   0  0  0  0  0  0  0  0  0  0  0  0
    0.3877  -44.4741    6.9199 H   0  0  0  0  0  0  0  0  0  0  0  0
   -6.0366  -44.9618    5.9157 H   0  0  0  0  0  0  0  0  0  0  0  0
   -3.7036  -44.6706    5.1421 H   0  0  0  0  0  0  0  0  0  0  0  0
   -2.2552  -45.9322    8.9976 H   0  0  0  0  0  0  0  0  0  0  0  0
   -8.0454  -46.3411    9.8726 H   0  0  0  0  0  0  0  0  0  0  0  0
   -6.2301  -46.8938   11.4627 H   0  0  0  0  0  0  0  0  0  0  0  0
   -3.8482  -46.6389   10.7159 H   0  0  0  0  0  0  0  0  0  0  0  0
  1  2  2  0  0  0  0
  2  3  1  0  0  0  0
  2  4  1  0  0  0  0
  4 11  2  0  0  0  0
  4 26  1  0  0  0  0
  5  6  1  0  0  0  0
  5 10  1  0  0  0  0
  5 26  2  0  0  0  0
  6  7  2  0  0  0  0
  7  8  1  0  0  0  0
  8  9  1  0  0  0  0
  9 10  2  0  0  0  0
 10 11  1  0  0  0  0
 11 12  1  0  0  0  0
 12 13  1  0  0  0  0
 13 14  1  0  0  0  0
 14 15  1  0  0  0  0
 15 16  1  0  0  0  0
 16 18  2  0  0  0  0
 16 19  1  0  0  0  0
 17 18  1  0  0  0  0
 17 21  2  0  0  0  0
 19 20  2  0  0  0  0
 20 21  1  0  0  0  0
 20 25  1  0  0  0  0
 21 22  1  0  0  0  0
 22 23  2  0  0  0  0
 23 24  1  0  0  0  0
 24 25  2  0  0  0  0
  3 27  1  0  0  0  0
  6 28  1  0  0  0  0
  7 29  1  0  0  0  0
  8 30  1  0  0  0  0
  8 31  1  0  0  0  0
  9 32  1  0  0  0  0
 12 33  1  0  0  0  0
 12 34  1  0  0  0  0
 13 35  1  0  0  0  0
 13 36  1  0  0  0  0
 14 37  1  0  0  0  0
 14 38  1  0  0  0  0
 17 39  1  0  0  0  0
 18 40  1  0  0  0  0
 19 41  1  0  0  0  0
 23 42  1  0  0  0  0
 24 43  1  0  0  0  0
 25 44  1  0  0  0  0
M  END
> <r_user_dG.exp>
-5.77553168796231

$$$$
47
  -OEChem-05192314073D
 Structure written by MMmdl.
 44 47  0     0  0  0  0  0  0999 V2000
    3.8686  -50.1190    7.0932 O   0  0  0  0  0  0  0  0  0  0  0  0
    3.1190  -49.1589    6.7946 C   0  0  0  0  0  0  0  0  0  0  0  0
    3.5527  -47.9843    6.7208 O   0  0  0  0  0  0  0  0  0  0  0  0
    1.6856  -49.4320    6.5286 C   0  0  0  0  0  0  0  0  0  0  0  0
   -0.0809  -50.8763    6.3515 C   0  0  0  0  0  0  0  0  0  0  0  0
   -0.9511  -51.9836    6.3183 C   0  0  0  0  0  0  0  0  0  0  0  0
   -2.3175  -51.7852    6.0387 C   0  0  0  0  0  0  0  0  0  0  0  0
   -2.8023  -50.4802    5.8114 C   0  0  0  0  0  0  0  0  0  0  0  0
   -1.9249  -49.3776    5.8612 C   0  0  0  0  0  0  0  0  0  0  0  0
   -0.5419  -49.5476    6.1269 C   0  0  0  0  0  0  0  0  0  0  0  0
    0.5818  -48.6544    6.2494 C   0  0  0  0  0  0  0  0  0  0  0  0
    0.5070  -47.1632    6.1421 C   0  0  0  0  0  0  0  0  0  0  0  0
    0.1148  -46.5415    7.4889 C   0  0  0  0  0  0  0  0  0  0  0  0
   -0.4072  -45.1038    7.3461 C   0  0  0  0  0  0  0  0  0  0  0  0
   -1.5468  -45.0525    6.4949 O   0  0  0  0  0  0  0  0  0  0  0  0
   -2.8067  -45.2692    7.0109 C   0  0  0  0  0  0  0  0  0  0  0  0
   -5.2211  -45.1826    6.5885 C   0  0  0  0  0  0  0  0  0  0  0  0
   -3.8922  -45.0084    6.1504 C   0  0  0  0  0  0  0  0  0  0  0  0
   -3.0729  -45.7272    8.3225 C   0  0  0  0  0  0  0  0  0  0  0  0
   -4.4026  -45.9169    8.7511 C   0  0  0  0  0  0  0  0  0  0  0  0
   -5.5002  -45.6402    7.8903 C   0  0  0  0  0  0  0  0  0  0  0  0
   -6.7807  -45.8063    8.2927 N   0  0  0  0  0  0  0  0  0  0  0  0
   -7.0196  -46.2339    9.5524 C   0  0  0  0  0  0  0  0  0  0  0  0
   -5.9967  -46.5463   10.4671 C   0  0  0  0  0  0  0  0  0  0  0  0
   -4.6620  -46.3937   10.0496 C   0  0  0  0  0  0  0  0  0  0  0  0
    1.2731  -50.7546    6.5922 N   0  0  0  0  0  0  0  0  0  0  0  0
    4.4815  -47.9761    6.9201 H   0  0  0  0  0  0  0  0  0  0  0  0
   -0.5733  -52.9778    6.5059 H   0  0  0  0  0  0  0  0  0  0  0  0
   -2.5471  -52.3722    5.1372 H   0  0  0  0  0  0  0  0  0  0  0  0
   -2.8799  -52.1901    6.8930 H   0  0  0  0  0  0  0  0  0  0  0  0
   -3.8496  -50.3250    5.5984 H   0  0  0  0  0  0  0  0  0  0  0  0
   -2.3135  -48.3839    5.6937 H   0  0  0  0  0  0  0  0  0  0  0  0
    1.4893  -46.7734    5.8369 H   0  0  0  0  0  0  0  0  0  0  0  0
   -0.2456  -46.8928    5.3868 H   0  0  0  0  0  0  0  0  0  0  0  0
   -0.6729  -47.1586    7.9457 H   0  0  0  0  0  0  0  0  0  0  0  0
    0.9989  -46.5320    8.1433 H   0  0  0  0  0  0  0  0  0  0  0  0
   -0.6841  -44.7222    8.3399 H   0  0  0  0  0  0  0  0  0  0  0  0
    0.3877  -44.4741    6.9199 H   0  0  0  0  0  0  0  0  0  0  0  0
   -6.0366  -44.9618    5.9157 H   0  0  0  0  0  0  0  0  0  0  0  0
   -3.7036  -44.6706    5.1421 H   0  0  0  0  0  0  0  0  0  0  0  0
   -2.2552  -45.9322    8.9976 H   0  0  0  0  0  0  0  0  0  0  0  0
   -8.0454  -46.3411    9.8726 H   0  0  0  0  0  0  0  0  0  0  0  0
   -6.2301  -46.8938   11.4627 H   0  0  0  0  0  0  0  0  0  0  0  0
   -3.8482  -46.6389   10.7159 H   0  0  0  0  0  0  0  0  0  0  0  0
  1  2  2  0  0  0  0
  2  3  1  0  0  0  0
  2  4  1  0  0  0  0
  4 11  1  0  0  0  0
  4 26  2  0  0  0  0
  5  6  2  0  0  0  0
  5 10  1  0  0  0  0
  5 26  1  0  0  0  0
  6  7  1  0  0  0  0
  7  8  1  0  0  0  0
  8  9  2  0  0  0  0
  9 10  1  0  0  0  0
 10 11  2  0  0  0  0
 11 12  1  0  0  0  0
 12 13  1  0  0  0  0
 13 14  1  0  0  0  0
 14 15  1  0  0  0  0
 15 16  1  0  0  0  0
 16 18  2  0  0  0  0
 16 19  1  0  0  0  0
 17 18  1  0  0  0  0
 17 21  2  0  0  0  0
 19 20  2  0  0  0  0
 20 21  1  0  0  0  0
 20 25  1  0  0  0  0
 21 22  1  0  0  0  0
 22 23  2  0  0  0  0
 23 24  1  0  0  0  0
 24 25  2  0  0  0  0
  3 27  1  0  0  0  0
  6 28  1  0  0  0  0
  7 29  1  0  0  0  0
  7 30  1  0  0  0  0
  8 31  1  0  0  0  0
  9 32  1  0  0  0  0
 12 33  1  0  0  0  0
 12 34  1  0  0  0  0
 13 35  1  0  0  0  0
 13 36  1  0  0  0  0
 14 37  1  0  0  0  0
 14 38  1  0  0  0  0
 17 39  1  0  0  0  0
 18 40  1  0  0  0  0
 19 41  1  0  0  0  0
 23 42  1  0  0  0  0
 24 43  1  0  0  0  0
 25 44  1  0  0  0  0
M  END
> <r_user_dG.exp>
-5.77553168796231

$$$$
47
  -OEChem-05192314073D
 Structure written by MMmdl.
 44 47  0     0  0  0  0  0  0999 V2000
    3.8686  -50.1190    7.0932 O   0  0  0  0  0  0  0  0  0  0  0  0
    3.1190  -49.1589    6.7946 C   0  0  0  0  0  0  0  0  0  0  0  0
    3.5527  -47.9843    6.7208 O   0  0  0  0  0  0  0  0  0  0  0  0
    1.6856  -49.4320    6.5286 C   0  0  0  0  0  0  0  0  0  0  0  0
   -0.0809  -50.8763    6.3515 C   0  0  0  0  0  0  0  0  0  0  0  0
   -0.9511  -51.9836    6.3183 C   0  0  0  0  0  0  0  0  0  0  0  0
   -2.3175  -51.7852    6.0387 C   0  0  0  0  0  0  0  0  0  0  0  0
   -2.8023  -50.4802    5.8114 C   0  0  0  0  0  0  0  0  0  0  0  0
   -1.9249  -49.3776    5.8612 C   0  0  0  0  0  0  0  0  0  0  0  0
   -0.5419  -49.5476    6.1269 C   0  0  0  0  0  0  0  0  0  0  0  0
    0.5818  -48.6544    6.2494 C   0  0  0  0  0  0  0  0  0  0  0  0
    0.5070  -47.1632    6.1421 C   0  0  0  0  0  0  0  0  0  0  0  0
    0.1148  -46.5415    7.4889 C   0  0  0  0  0  0  0  0  0  0  0  0
   -0.4072  -45.1038    7.3461 C   0  0  0  0  0  0  0  0  0  0  0  0
   -1.5468  -45.0525    6.4949 O   0  0  0  0  0  0  0  0  0  0  0  0
   -2.8067  -45.2692    7.0109 C   0  0  0  0  0  0  0  0  0  0  0  0
   -5.2211  -45.1826    6.5885 C   0  0  0  0  0  0  0  0  0  0  0  0
   -3.8922  -45.0084    6.1504 C   0  0  0  0  0  0  0  0  0  0  0  0
   -3.0729  -45.7272    8.3225 C   0  0  0  0  0  0  0  0  0  0  0  0
   -4.4026  -45.9169    8.7511 C   0  0  0  0  0  0  0  0  0  0  0  0
   -5.5002  -45.6402    7.8903 C   0  0  0  0  0  0  0  0  0  0  0  0
   -6.7807  -45.8063    8.2927 N   0  0  0  0  0  0  0  0  0  0  0  0
   -7.0196  -46.2339    9.5524 C   0  0  0  0  0  0  0  0  0  0  0  0
   -5.9967  -46.5463   10.4671 C   0  0  0  0  0  0  0  0  0  0  0  0
   -4.6620  -46.3937   10.0496 C   0  0  0  0  0  0  0  0  0  0  0  0
    1.2731  -50.7546    6.5922 N   0  0  0  0  0  0  0  0  0  0  0  0
    4.4815  -47.9761    6.9201 H   0  0  0  0  0  0  0  0  0  0  0  0
   -0.5644  -52.6712    5.5517 H   0  0  0  0  0  0  0  0  0  0  0  0
   -0.8934  -52.4653    7.3056 H   0  0  0  0  0  0  0  0  0  0  0  0
   -2.9909  -52.6286    5.9986 H   0  0  0  0  0  0  0  0  0  0  0  0
   -3.8496  -50.3250    5.5984 H   0  0  0  0  0  0  0  0  0  0  0  0
   -2.3135  -48.3839    5.6937 H   0  0  0  0  0  0  0  0  0  0  0  0
    1.4893  -46.7734    5.8369 H   0  0  0  0  0  0  0  0  0  0  0  0
   -0.2456  -46.8928    5.3868 H   0  0  0  0  0  0  0  0  0  0  0  0
   -0.6729  -47.1586    7.9457 H   0  0  0  0  0  0  0  0  0  0  0  0
    0.9989  -46.5320    8.1433 H   0  0  0  0  0  0  0  0  0  0  0  0
   -0.6841  -44.7222    8.3399 H   0  0  0  0  0  0  0  0  0  0  0  0
    0.3877  -44.4741    6.9199 H   0  0  0  0  0  0  0  0  0  0  0  0
   -6.0366  -44.9618    5.9157 H   0  0  0  0  0  0  0  0  0  0  0  0
   -3.7036  -44.6706    5.1421 H   0  0  0  0  0  0  0  0  0  0  0  0
   -2.2552  -45.9322    8.9976 H   0  0  0  0  0  0  0  0  0  0  0  0
   -8.0454  -46.3411    9.8726 H   0  0  0  0  0  0  0  0  0  0  0  0
   -6.2301  -46.8938   11.4627 H   0  0  0  0  0  0  0  0  0  0  0  0
   -3.8482  -46.6389   10.7159 H   0  0  0  0  0  0  0  0  0  0  0  0
  1  2  2  0  0  0  0
  2  3  1  0  0  0  0
  2  4  1  0  0  0  0
  4 11  2  0  0  0  0
  4 26  1  0  0  0  0
  5  6  1  0  0  0  0
  5 10  1  0  0  0  0
  5 26  2  0  0  0  0
  6  7  1  0  0  0  0
  7  8  2  0  0  0  0
  8  9  1  0  0  0  0
  9 10  2  0  0  0  0
 10 11  1  0  0  0  0
 11 12  1  0  0  0  0
 12 13  1  0  0  0  0
 13 14  1  0  0  0  0
 14 15  1  0  0  0  0
 15 16  1  0  0  0  0
 16 18  2  0  0  0  0
 16 19  1  0  0  0  0
 17 18  1  0  0  0  0
 17 21  2  0  0  0  0
 19 20  2  0  0  0  0
 20 21  1  0  0  0  0
 20 25  1  0  0  0  0
 21 22  1  0  0  0  0
 22 23  2  0  0  0  0
 23 24  1  0  0  0  0
 24 25  2  0  0  0  0
  3 27  1  0  0  0  0
  6 28  1  0  0  0  0
  6 29  1  0  0  0  0
  7 30  1  0  0  0  0
  8 31  1  0  0  0  0
  9 32  1  0  0  0  0
 12 33  1  0  0  0  0
 12 34  1  0  0  0  0
 13 35  1  0  0  0  0
 13 36  1  0  0  0  0
 14 37  1  0  0  0  0
 14 38  1  0  0  0  0
 17 39  1  0  0  0  0
 18 40  1  0  0  0  0
 19 41  1  0  0  0  0
 23 42  1  0  0  0  0
 24 43  1  0  0  0  0
 25 44  1  0  0  0  0
M  END
> <r_user_dG.exp>
-5.77553168796231

$$$$
47
  -OEChem-05192314073D
 Structure written by MMmdl.
 44 47  0     0  0  0  0  0  0999 V2000
    3.8686  -50.1190    7.0932 O   0  0  0  0  0  0  0  0  0  0  0  0
    3.1190  -49.1589    6.7946 C   0  0  0  0  0  0  0  0  0  0  0  0
    3.5527  -47.9843    6.7208 O   0  0  0  0  0  0  0  0  0  0  0  0
    1.6856  -49.4320    6.5286 C   0  0  0  0  0  0  0  0  0  0  0  0
   -0.0809  -50.8763    6.3515 C   0  0  0  0  0  0  0  0  0  0  0  0
   -0.9511  -51.9836    6.3183 C   0  0  0  0  0  0  0  0  0  0  0  0
   -2.3175  -51.7852    6.0387 C   0  0  0  0  0  0  0  0  0  0  0  0
   -2.8023  -50.4802    5.8114 C   0  0  0  0  0  0  0  0  0  0  0  0
   -1.9249  -49.3776    5.8612 C   0  0  0  0  0  0  0  0  0  0  0  0
   -0.5419  -49.5476    6.1269 C   0  0  0  0  0  0  0  0  0  0  0  0
    0.5818  -48.6544    6.2494 C   0  0  0  0  0  0  0  0  0  0  0  0
    0.5070  -47.1632    6.1421 C   0  0  0  0  0  0  0  0  0  0  0  0
    0.1148  -46.5415    7.4889 C   0  0  0  0  0  0  0  0  0  0  0  0
   -0.4072  -45.1038    7.3461 C   0  0  0  0  0  0  0  0  0  0  0  0
   -1.5468  -45.0525    6.4949 O   0  0  0  0  0  0  0  0  0  0  0  0
   -2.8067  -45.2692    7.0109 C   0  0  0  0  0  0  0  0  0  0  0  0
   -5.2211  -45.1826    6.5885 C   0  0  0  0  0  0  0  0  0  0  0  0
   -3.8922  -45.0084    6.1504 C   0  0  0  0  0  0  0  0  0  0  0  0
   -3.0729  -45.7272    8.3225 C   0  0  0  0  0  0  0  0  0  0  0  0
   -4.4026  -45.9169    8.7511 C   0  0  0  0  0  0  0  0  0  0  0  0
   -5.5002  -45.6402    7.8903 C   0  0  0  0  0  0  0  0  0  0  0  0
   -6.7807  -45.8063    8.2927 N   0  0  0  0  0  0  0  0  0  0  0  0
   -7.0196  -46.2339    9.5524 C   0  0  0  0  0  0  0  0  0  0  0  0
   -5.9967  -46.5463   10.4671 C   0  0  0  0  0  0  0  0  0  0  0  0
   -4.6620  -46.3937   10.0496 C   0  0  0  0  0  0  0  0  0  0  0  0
    1.2731  -50.7546    6.5922 N   0  0  0  0  0  0  0  0  0  0  0  0
    4.4815  -47.9761    6.9201 H   0  0  0  0  0  0  0  0  0  0  0  0
   -0.5733  -52.9778    6.5059 H   0  0  0  0  0  0  0  0  0  0  0  0
   -2.9909  -52.6286    5.9986 H   0  0  0  0  0  0  0  0  0  0  0  0
   -3.8496  -50.3250    5.5984 H   0  0  0  0  0  0  0  0  0  0  0  0
   -1.9950  -48.8796    4.8829 H   0  0  0  0  0  0  0  0  0  0  0  0
   -2.3118  -48.7070    6.6426 H   0  0  0  0  0  0  0  0  0  0  0  0
    1.4893  -46.7734    5.8369 H   0  0  0  0  0  0  0  0  0  0  0  0
   -0.2456  -46.8928    5.3868 H   0  0  0  0  0  0  0  0  0  0  0  0
   -0.6729  -47.1586    7.9457 H   0  0  0  0  0  0  0  0  0  0  0  0
    0.9989  -46.5320    8.1433 H   0  0  0  0  0  0  0  0  0  0  0  0
   -0.6841  -44.7222    8.3399 H   0  0  0  0  0  0  0  0  0  0  0  0
    0.3877  -44.4741    6.9199 H   0  0  0  0  0  0  0  0  0  0  0  0
   -6.0366  -44.9618    5.9157 H   0  0  0  0  0  0  0  0  0  0  0  0
   -3.7036  -44.6706    5.1421 H   0  0  0  0  0  0  0  0  0  0  0  0
   -2.2552  -45.9322    8.9976 H   0  0  0  0  0  0  0  0  0  0  0  0
   -8.0454  -46.3411    9.8726 H   0  0  0  0  0  0  0  0  0  0  0  0
   -6.2301  -46.8938   11.4627 H   0  0  0  0  0  0  0  0  0  0  0  0
   -3.8482  -46.6389   10.7159 H   0  0  0  0  0  0  0  0  0  0  0  0
  1  2  2  0  0  0  0
  2  3  1  0  0  0  0
  2  4  1  0  0  0  0
  4 11  1  0  0  0  0
  4 26  2  0  0  0  0
  5  6  2  0  0  0  0
  5 10  1  0  0  0  0
  5 26  1  0  0  0  0
  6  7  1  0  0  0  0
  7  8  2  0  0  0  0
  8  9  1  0  0  0  0
  9 10  1  0  0  0  0
 10 11  2  0  0  0  0
 11 12  1  0  0  0  0
 12 13  1  0  0  0  0
 13 14  1  0  0  0  0
 14 15  1  0  0  0  0
 15 16  1  0  0  0  0
 16 18  2  0  0  0  0
 16 19  1  0  0  0  0
 17 18  1  0  0  0  0
 17 21  2  0  0  0  0
 19 20  2  0  0  0  0
 20 21  1  0  0  0  0
 20 25  1  0  0  0  0
 21 22  1  0  0  0  0
 22 23  2  0  0  0  0
 23 24  1  0  0  0  0
 24 25  2  0  0  0  0
  3 27  1  0  0  0  0
  6 28  1  0  0  0  0
  7 29  1  0  0  0  0
  8 30  1  0  0  0  0
  9 31  1  0  0  0  0
  9 32  1  0  0  0  0
 12 33  1  0  0  0  0
 12 34  1  0  0  0  0
 13 35  1  0  0  0  0
 13 36  1  0  0  0  0
 14 37  1  0  0  0  0
 14 38  1  0  0  0  0
 17 39  1  0  0  0  0
 18 40  1  0  0  0  0
 19 41  1  0  0  0  0
 23 42  1  0  0  0  0
 24 43  1  0  0  0  0
 25 44  1  0  0  0  0
M  END
> <r_user_dG.exp>
-5.77553168796231

$$$$
47
  -OEChem-05192314073D
 Structure written by MMmdl.
 44 47  0     0  0  0  0  0  0999 V2000
    3.8686  -50.1190    7.0932 O   0  0  0  0  0  0  0  0  0  0  0  0
    3.1190  -49.1589    6.7946 C   0  0  0  0  0  0  0  0  0  0  0  0
    3.5527  -47.9843    6.7208 O   0  0  0  0  0  0  0  0  0  0  0  0
    1.6856  -49.4320    6.5286 C   0  0  0  0  0  0  0  0  0  0  0  0
   -0.0809  -50.8763    6.3515 C   0  0  0  0  0  0  0  0  0  0  0  0
   -0.9511  -51.9836    6.3183 C   0  0  0  0  0  0  0  0  0  0  0  0
   -2.3175  -51.7852    6.0387 C   0  0  0  0  0  0  0  0  0  0  0  0
   -2.8023  -50.4802    5.8114 C   0  0  0  0  0  0  0  0  0  0  0  0
   -1.9249  -49.3776    5.8612 C   0  0  0  0  0  0  0  0  0  0  0  0
   -0.5419  -49.5476    6.1269 C   0  0  0  0  0  0  0  0  0  0  0  0
    0.5818  -48.6544    6.2494 C   0  0  0  0  0  0  0  0  0  0  0  0
    0.5070  -47.1632    6.1421 C   0  0  0  0  0  0  0  0  0  0  0  0
    0.1148  -46.5415    7.4889 C   0  0  0  0  0  0  0  0  0  0  0  0
   -0.4072  -45.1038    7.3461 C   0  0  0  0  0  0  0  0  0  0  0  0
   -1.5468  -45.0525    6.4949 O   0  0  0  0  0  0  0  0  0  0  0  0
   -2.8067  -45.2692    7.0109 C   0  0  0  0  0  0  0  0  0  0  0  0
   -5.2211  -45.1826    6.5885 C   0  0  0  0  0  0  0  0  0  0  0  0
   -3.8922  -45.0084    6.1504 C   0  0  0  0  0  0  0  0  0  0  0  0
   -3.0729  -45.7272    8.3225 C   0  0  0  0  0  0  0  0  0  0  0  0
   -4.4026  -45.9169    8.7511 C   0  0  0  0  0  0  0  0  0  0  0  0
   -5.5002  -45.6402    7.8903 C   0  0  0  0  0  0  0  0  0  0  0  0
   -6.7807  -45.8063    8.2927 N   0  0  0  0  0  0  0  0  0  0  0  0
   -7.0196  -46.2339    9.5524 C   0  0  0  0  0  0  0  0  0  0  0  0
   -5.9967  -46.5463   10.4671 C   0  0  0  0  0  0  0  0  0  0  0  0
   -4.6620  -46.3937   10.0496 C   0  0  0  0  0  0  0  0  0  0  0  0
    1.2731  -50.7546    6.5922 N   0  0  0  0  0  0  0  0  0  0  0  0
    3.3650  -50.9245    7.0993 H   0  0  0  0  0  0  0  0  0  0  0  0
    2.8432  -47.3986    6.4842 H   0  0  0  0  0  0  0  0  0  0  0  0
   -0.5733  -52.9778    6.5059 H   0  0  0  0  0  0  0  0  0  0  0  0
   -2.9909  -52.6286    5.9986 H   0  0  0  0  0  0  0  0  0  0  0  0
   -3.8496  -50.3250    5.5984 H   0  0  0  0  0  0  0  0  0  0  0  0
   -2.3135  -48.3839    5.6937 H   0  0  0  0  0  0  0  0  0  0  0  0
    1.4893  -46.7734    5.8369 H   0  0  0  0  0  0  0  0  0  0  0  0
   -0.2456  -46.8928    5.3868 H   0  0  0  0  0  0  0  0  0  0  0  0
   -0.6729  -47.1586    7.9457 H   0  0  0  0  0  0  0  0  0  0  0  0
    0.9989  -46.5320    8.1433 H   0  0  0  0  0  0  0  0  0  0  0  0
   -0.6841  -44.7222    8.3399 H   0  0  0  0  0  0  0  0  0  0  0  0
    0.3877  -44.4741    6.9199 H   0  0  0  0  0  0  0  0  0  0  0  0
   -6.0366  -44.9618    5.9157 H   0  0  0  0  0  0  0  0  0  0  0  0
   -3.7036  -44.6706    5.1421 H   0  0  0  0  0  0  0  0  0  0  0  0
   -2.2552  -45.9322    8.9976 H   0  0  0  0  0  0  0  0  0  0  0  0
   -8.0454  -46.3411    9.8726 H   0  0  0  0  0  0  0  0  0  0  0  0
   -6.2301  -46.8938   11.4627 H   0  0  0  0  0  0  0  0  0  0  0  0
   -3.8482  -46.6389   10.7159 H   0  0  0  0  0  0  0  0  0  0  0  0
  1  2  1  0  0  0  0
  2  3  1  0  0  0  0
  2  4  2  0  0  0  0
  4 11  1  0  0  0  0
  4 26  1  0  0  0  0
  5  6  1  0  0  0  0
  5 10  1  0  0  0  0
  5 26  2  0  0  0  0
  6  7  2  0  0  0  0
  7  8  1  0  0  0  0
  8  9  2  0  0  0  0
  9 10  1  0  0  0  0
 10 11  2  0  0  0  0
 11 12  1  0  0  0  0
 12 13  1  0  0  0  0
 13 14  1  0  0  0  0
 14 15  1  0  0  0  0
 15 16  1  0  0  0  0
 16 18  2  0  0  0  0
 16 19  1  0  0  0  0
 17 18  1  0  0  0  0
 17 21  2  0  0  0  0
 19 20  2  0  0  0  0
 20 21  1  0  0  0  0
 20 25  1  0  0  0  0
 21 22  1  0  0  0  0
 22 23  2  0  0  0  0
 23 24  1  0  0  0  0
 24 25  2  0  0  0  0
  1 27  1  0  0  0  0
  3 28  1  0  0  0  0
  6 29  1  0  0  0  0
  7 30  1  0  0  0  0
  8 31  1  0  0  0  0
  9 32  1  0  0  0  0
 12 33  1  0  0  0  0
 12 34  1  0  0  0  0
 13 35  1  0  0  0  0
 13 36  1  0  0  0  0
 14 37  1  0  0  0  0
 14 38  1  0  0  0  0
 17 39  1  0  0  0  0
 18 40  1  0  0  0  0
 19 41  1  0  0  0  0
 23 42  1  0  0  0  0
 24 43  1  0  0  0  0
 25 44  1  0  0  0  0
M  END
> <r_user_dG.exp>
-5.77553168796231

$$$$
