45
  -OEChem-05192314073D
 Structure written by MMmdl.
 49 52  0     0  0  0  0  0  0999 V2000
    3.4855  -49.9426    7.0276 O   0  0  0  0  0  0  0  0  0  0  0  0
    2.8121  -48.9262    6.7501 C   0  0  0  0  0  0  0  0  0  0  0  0
    3.3387  -47.7912    6.7250 O   0  0  0  0  0  0  0  0  0  0  0  0
    1.3656  -49.0984    6.4616 C   0  0  0  0  0  0  0  0  0  0  0  0
   -0.4570  -50.4272    6.2251 C   0  0  0  0  0  0  0  0  0  0  0  0
   -1.3771  -51.4933    6.1604 C   0  0  0  0  0  0  0  0  0  0  0  0
   -2.7279  -51.2247    5.8404 C   0  0  0  0  0  0  0  0  0  0  0  0
   -3.1252  -49.8960    5.5731 C   0  0  0  0  0  0  0  0  0  0  0  0
   -2.1902  -48.8426    5.6378 C   0  0  0  0  0  0  0  0  0  0  0  0
   -0.8351  -49.0777    5.9738 C   0  0  0  0  0  0  0  0  0  0  0  0
    0.3360  -48.2451    6.1279 C   0  0  0  0  0  0  0  0  0  0  0  0
    0.4043  -46.7612    5.9387 C   0  0  0  0  0  0  0  0  0  0  0  0
    0.3098  -45.9594    7.2517 C   0  0  0  0  0  0  0  0  0  0  0  0
   -1.0292  -46.0969    7.9995 C   0  0  0  0  0  0  0  0  0  0  0  0
   -2.0793  -45.5604    7.1983 O   0  0  0  0  0  0  0  0  0  0  0  0
   -3.3471  -45.4671    7.7380 C   0  0  0  0  0  0  0  0  0  0  0  0
   -5.9796  -45.1890    8.7400 C   0  0  0  0  0  0  0  0  0  0  0  0
   -4.9970  -45.8216    9.5182 C   0  0  0  0  0  0  0  0  0  0  0  0
   -3.6869  -45.9651    9.0246 C   0  0  0  0  0  0  0  0  0  0  0  0
   -5.6697  -44.7035    7.4607 C   0  0  0  0  0  0  0  0  0  0  0  0
   -4.3510  -44.8400    6.9519 C   0  0  0  0  0  0  0  0  0  0  0  0
   -4.0014  -44.3412    5.5513 C   0  0  0  0  0  0  0  0  0  0  0  0
   -5.0175  -43.3336    4.9872 C   0  0  0  0  0  0  0  0  0  0  0  0
   -6.4494  -43.8370    5.1794 C   0  0  0  0  0  0  0  0  0  0  0  0
   -6.7716  -44.0165    6.6646 C   0  0  0  0  0  0  0  0  0  0  0  0
    0.8791  -50.3882    6.5090 N   0  0  0  0  0  0  0  0  0  0  0  0
    4.2612  -47.8648    6.9397 H   0  0  0  0  0  0  0  0  0  0  0  0
   -1.0534  -52.5054    6.3534 H   0  0  0  0  0  0  0  0  0  0  0  0
   -3.4489  -52.0278    5.8008 H   0  0  0  0  0  0  0  0  0  0  0  0
   -4.1531  -49.6852    5.3172 H   0  0  0  0  0  0  0  0  0  0  0  0
   -2.5148  -47.8344    5.4264 H   0  0  0  0  0  0  0  0  0  0  0  0
    1.3603  -46.5177    5.4522 H   0  0  0  0  0  0  0  0  0  0  0  0
   -0.4272  -46.4566    5.2862 H   0  0  0  0  0  0  0  0  0  0  0  0
    1.1120  -46.3037    7.9210 H   0  0  0  0  0  0  0  0  0  0  0  0
    0.4612  -44.8960    7.0145 H   0  0  0  0  0  0  0  0  0  0  0  0
   -1.2287  -47.1596    8.2015 H   0  0  0  0  0  0  0  0  0  0  0  0
   -0.9761  -45.5466    8.9505 H   0  0  0  0  0  0  0  0  0  0  0  0
   -6.9808  -45.0754    9.1288 H   0  0  0  0  0  0  0  0  0  0  0  0
   -5.2473  -46.1992   10.4986 H   0  0  0  0  0  0  0  0  0  0  0  0
   -2.9364  -46.4560    9.6265 H   0  0  0  0  0  0  0  0  0  0  0  0
   -3.0150  -43.8559    5.5907 H   0  0  0  0  0  0  0  0  0  0  0  0
   -3.9572  -45.2071    4.8743 H   0  0  0  0  0  0  0  0  0  0  0  0
   -4.9002  -42.3729    5.5099 H   0  0  0  0  0  0  0  0  0  0  0  0
   -4.8265  -43.1924    3.9132 H   0  0  0  0  0  0  0  0  0  0  0  0
   -7.1488  -43.1075    4.7450 H   0  0  0  0  0  0  0  0  0  0  0  0
   -6.5629  -44.8038    4.6671 H   0  0  0  0  0  0  0  0  0  0  0  0
   -7.6870  -44.6206    6.7491 H   0  0  0  0  0  0  0  0  0  0  0  0
   -6.9464  -43.0228    7.1028 H   0  0  0  0  0  0  0  0  0  0  0  0
    1.4335  -51.1923    6.7238 H   0  0  0  0  0  0  0  0  0  0  0  0
  1  2  2  0  0  0  0
  2  3  1  0  0  0  0
  2  4  1  0  0  0  0
  4 11  2  0  0  0  0
  4 26  1  0  0  0  0
  5  6  2  0  0  0  0
  5 10  1  0  0  0  0
  5 26  1  0  0  0  0
  6  7  1  0  0  0  0
  7  8  2  0  0  0  0
  8  9  1  0  0  0  0
  9 10  2  0  0  0  0
 10 11  1  0  0  0  0
 11 12  1  0  0  0  0
 12 13  1  0  0  0  0
 13 14  1  0  0  0  0
 14 15  1  0  0  0  0
 15 16  1  0  0  0  0
 16 19  2  0  0  0  0
 16 21  1  0  0  0  0
 17 18  2  0  0  0  0
 17 20  1  0  0  0  0
 18 19  1  0  0  0  0
 20 21  2  0  0  0  0
 20 25  1  0  0  0  0
 21 22  1  0  0  0  0
 22 23  1  0  0  0  0
 23 24  1  0  0  0  0
 24 25  1  0  0  0  0
  3 27  1  0  0  0  0
  6 28  1  0  0  0  0
  7 29  1  0  0  0  0
  8 30  1  0  0  0  0
  9 31  1  0  0  0  0
 12 32  1  0  0  0  0
 12 33  1  0  0  0  0
 13 34  1  0  0  0  0
 13 35  1  0  0  0  0
 14 36  1  0  0  0  0
 14 37  1  0  0  0  0
 17 38  1  0  0  0  0
 18 39  1  0  0  0  0
 19 40  1  0  0  0  0
 22 41  1  0  0  0  0
 22 42  1  0  0  0  0
 23 43  1  0  0  0  0
 23 44  1  0  0  0  0
 24 45  1  0  0  0  0
 24 46  1  0  0  0  0
 25 47  1  0  0  0  0
 25 48  1  0  0  0  0
 26 49  1  0  0  0  0
M  END
> <r_user_dG.exp>
-8.95356461676206

$$$$
45
  -OEChem-05192314073D
 Structure written by MMmdl.
 49 52  0     1  0  0  0  0  0999 V2000
    3.4855  -49.9426    7.0276 O   0  0  0  0  0  0  0  0  0  0  0  0
    2.8121  -48.9262    6.7501 C   0  0  0  0  0  0  0  0  0  0  0  0
    3.3387  -47.7912    6.7250 O   0  0  0  0  0  0  0  0  0  0  0  0
    1.3656  -49.0984    6.4616 C   0  0  0  0  0  0  0  0  0  0  0  0
   -0.4570  -50.4272    6.2251 C   0  0  0  0  0  0  0  0  0  0  0  0
   -1.3771  -51.4933    6.1604 C   0  0  0  0  0  0  0  0  0  0  0  0
   -2.7279  -51.2247    5.8404 C   0  0  0  0  0  0  0  0  0  0  0  0
   -3.1252  -49.8960    5.5731 C   0  0  0  0  0  0  0  0  0  0  0  0
   -2.1902  -48.8426    5.6378 C   0  0  0  0  0  0  0  0  0  0  0  0
   -0.8351  -49.0777    5.9738 C   0  0  0  0  0  0  0  0  0  0  0  0
    0.3360  -48.2451    6.1279 C   0  0  3  0  0  0  0  0  0  0  0  0
    0.4043  -46.7612    5.9387 C   0  0  0  0  0  0  0  0  0  0  0  0
    0.3098  -45.9594    7.2517 C   0  0  0  0  0  0  0  0  0  0  0  0
   -1.0292  -46.0969    7.9995 C   0  0  0  0  0  0  0  0  0  0  0  0
   -2.0793  -45.5604    7.1983 O   0  0  0  0  0  0  0  0  0  0  0  0
   -3.3471  -45.4671    7.7380 C   0  0  0  0  0  0  0  0  0  0  0  0
   -5.9796  -45.1890    8.7400 C   0  0  0  0  0  0  0  0  0  0  0  0
   -4.9970  -45.8216    9.5182 C   0  0  0  0  0  0  0  0  0  0  0  0
   -3.6869  -45.9651    9.0246 C   0  0  0  0  0  0  0  0  0  0  0  0
   -5.6697  -44.7035    7.4607 C   0  0  0  0  0  0  0  0  0  0  0  0
   -4.3510  -44.8400    6.9519 C   0  0  0  0  0  0  0  0  0  0  0  0
   -4.0014  -44.3412    5.5513 C   0  0  0  0  0  0  0  0  0  0  0  0
   -5.0175  -43.3336    4.9872 C   0  0  0  0  0  0  0  0  0  0  0  0
   -6.4494  -43.8370    5.1794 C   0  0  0  0  0  0  0  0  0  0  0  0
   -6.7716  -44.0165    6.6646 C   0  0  0  0  0  0  0  0  0  0  0  0
    0.8791  -50.3882    6.5090 N   0  0  0  0  0  0  0  0  0  0  0  0
    4.2612  -47.8648    6.9397 H   0  0  0  0  0  0  0  0  0  0  0  0
   -1.0534  -52.5054    6.3534 H   0  0  0  0  0  0  0  0  0  0  0  0
   -3.4489  -52.0278    5.8008 H   0  0  0  0  0  0  0  0  0  0  0  0
   -4.1531  -49.6852    5.3172 H   0  0  0  0  0  0  0  0  0  0  0  0
   -2.5148  -47.8344    5.4264 H   0  0  0  0  0  0  0  0  0  0  0  0
    0.1012  -48.1033    7.1932 H   0  0  0  0  0  0  0  0  0  0  0  0
    1.3603  -46.5177    5.4522 H   0  0  0  0  0  0  0  0  0  0  0  0
   -0.4272  -46.4566    5.2862 H   0  0  0  0  0  0  0  0  0  0  0  0
    1.1120  -46.3037    7.9210 H   0  0  0  0  0  0  0  0  0  0  0  0
    0.4612  -44.8960    7.0145 H   0  0  0  0  0  0  0  0  0  0  0  0
   -1.2287  -47.1596    8.2015 H   0  0  0  0  0  0  0  0  0  0  0  0
   -0.9761  -45.5466    8.9505 H   0  0  0  0  0  0  0  0  0  0  0  0
   -6.9808  -45.0754    9.1288 H   0  0  0  0  0  0  0  0  0  0  0  0
   -5.2473  -46.1992   10.4986 H   0  0  0  0  0  0  0  0  0  0  0  0
   -2.9364  -46.4560    9.6265 H   0  0  0  0  0  0  0  0  0  0  0  0
   -3.0150  -43.8559    5.5907 H   0  0  0  0  0  0  0  0  0  0  0  0
   -3.9572  -45.2071    4.8743 H   0  0  0  0  0  0  0  0  0  0  0  0
   -4.9002  -42.3729    5.5099 H   0  0  0  0  0  0  0  0  0  0  0  0
   -4.8265  -43.1924    3.9132 H   0  0  0  0  0  0  0  0  0  0  0  0
   -7.1488  -43.1075    4.7450 H   0  0  0  0  0  0  0  0  0  0  0  0
   -6.5629  -44.8038    4.6671 H   0  0  0  0  0  0  0  0  0  0  0  0
   -7.6870  -44.6206    6.7491 H   0  0  0  0  0  0  0  0  0  0  0  0
   -6.9464  -43.0228    7.1028 H   0  0  0  0  0  0  0  0  0  0  0  0
  1  2  2  0  0  0  0
  2  3  1  0  0  0  0
  2  4  1  0  0  0  0
  4 11  1  0  0  0  0
  4 26  2  0  0  0  0
  5  6  2  0  0  0  0
  5 10  1  0  0  0  0
  5 26  1  0  0  0  0
  6  7  1  0  0  0  0
  7  8  2  0  0  0  0
  8  9  1  0  0  0  0
  9 10  2  0  0  0  0
 10 11  1  0  0  0  0
 11 12  1  0  0  0  0
 12 13  1  0  0  0  0
 13 14  1  0  0  0  0
 14 15  1  0  0  0  0
 15 16  1  0  0  0  0
 16 19  2  0  0  0  0
 16 21  1  0  0  0  0
 17 18  2  0  0  0  0
 17 20  1  0  0  0  0
 18 19  1  0  0  0  0
 20 21  2  0  0  0  0
 20 25  1  0  0  0  0
 21 22  1  0  0  0  0
 22 23  1  0  0  0  0
 23 24  1  0  0  0  0
 24 25  1  0  0  0  0
  3 27  1  0  0  0  0
  6 28  1  0  0  0  0
  7 29  1  0  0  0  0
  8 30  1  0  0  0  0
  9 31  1  0  0  0  0
 11 32  1  0  0  0  0
 12 33  1  0  0  0  0
 12 34  1  0  0  0  0
 13 35  1  0  0  0  0
 13 36  1  0  0  0  0
 14 37  1  0  0  0  0
 14 38  1  0  0  0  0
 17 39  1  0  0  0  0
 18 40  1  0  0  0  0
 19 41  1  0  0  0  0
 22 42  1  0  0  0  0
 22 43  1  0  0  0  0
 23 44  1  0  0  0  0
 23 45  1  0  0  0  0
 24 46  1  0  0  0  0
 24 47  1  0  0  0  0
 25 48  1  0  0  0  0
 25 49  1  0  0  0  0
M  END
> <r_user_dG.exp>
-8.95356461676206

$$$$
45
  -OEChem-05192314073D
 Structure written by MMmdl.
 49 52  0     1  0  0  0  0  0999 V2000
    3.4855  -49.9426    7.0276 O   0  0  0  0  0  0  0  0  0  0  0  0
    2.8121  -48.9262    6.7501 C   0  0  0  0  0  0  0  0  0  0  0  0
    3.3387  -47.7912    6.7250 O   0  0  0  0  0  0  0  0  0  0  0  0
    1.3656  -49.0984    6.4616 C   0  0  3  0  0  0  0  0  0  0  0  0
   -0.4570  -50.4272    6.2251 C   0  0  0  0  0  0  0  0  0  0  0  0
   -1.3771  -51.4933    6.1604 C   0  0  0  0  0  0  0  0  0  0  0  0
   -2.7279  -51.2247    5.8404 C   0  0  0  0  0  0  0  0  0  0  0  0
   -3.1252  -49.8960    5.5731 C   0  0  0  0  0  0  0  0  0  0  0  0
   -2.1902  -48.8426    5.6378 C   0  0  0  0  0  0  0  0  0  0  0  0
   -0.8351  -49.0777    5.9738 C   0  0  0  0  0  0  0  0  0  0  0  0
    0.3360  -48.2451    6.1279 C   0  0  0  0  0  0  0  0  0  0  0  0
    0.4043  -46.7612    5.9387 C   0  0  0  0  0  0  0  0  0  0  0  0
    0.3098  -45.9594    7.2517 C   0  0  0  0  0  0  0  0  0  0  0  0
   -1.0292  -46.0969    7.9995 C   0  0  0  0  0  0  0  0  0  0  0  0
   -2.0793  -45.5604    7.1983 O   0  0  0  0  0  0  0  0  0  0  0  0
   -3.3471  -45.4671    7.7380 C   0  0  0  0  0  0  0  0  0  0  0  0
   -5.9796  -45.1890    8.7400 C   0  0  0  0  0  0  0  0  0  0  0  0
   -4.9970  -45.8216    9.5182 C   0  0  0  0  0  0  0  0  0  0  0  0
   -3.6869  -45.9651    9.0246 C   0  0  0  0  0  0  0  0  0  0  0  0
   -5.6697  -44.7035    7.4607 C   0  0  0  0  0  0  0  0  0  0  0  0
   -4.3510  -44.8400    6.9519 C   0  0  0  0  0  0  0  0  0  0  0  0
   -4.0014  -44.3412    5.5513 C   0  0  0  0  0  0  0  0  0  0  0  0
   -5.0175  -43.3336    4.9872 C   0  0  0  0  0  0  0  0  0  0  0  0
   -6.4494  -43.8370    5.1794 C   0  0  0  0  0  0  0  0  0  0  0  0
   -6.7716  -44.0165    6.6646 C   0  0  0  0  0  0  0  0  0  0  0  0
    0.8791  -50.3882    6.5090 N   0  0  0  0  0  0  0  0  0  0  0  0
    4.2612  -47.8648    6.9397 H   0  0  0  0  0  0  0  0  0  0  0  0
    1.1334  -48.9675    7.5288 H   0  0  0  0  0  0  0  0  0  0  0  0
   -1.0534  -52.5054    6.3534 H   0  0  0  0  0  0  0  0  0  0  0  0
   -3.4489  -52.0278    5.8008 H   0  0  0  0  0  0  0  0  0  0  0  0
   -4.1531  -49.6852    5.3172 H   0  0  0  0  0  0  0  0  0  0  0  0
   -2.5148  -47.8344    5.4264 H   0  0  0  0  0  0  0  0  0  0  0  0
    1.3603  -46.5177    5.4522 H   0  0  0  0  0  0  0  0  0  0  0  0
   -0.4272  -46.4566    5.2862 H   0  0  0  0  0  0  0  0  0  0  0  0
    1.1120  -46.3037    7.9210 H   0  0  0  0  0  0  0  0  0  0  0  0
    0.4612  -44.8960    7.0145 H   0  0  0  0  0  0  0  0  0  0  0  0
   -1.2287  -47.1596    8.2015 H   0  0  0  0  0  0  0  0  0  0  0  0
   -0.9761  -45.5466    8.9505 H   0  0  0  0  0  0  0  0  0  0  0  0
   -6.9808  -45.0754    9.1288 H   0  0  0  0  0  0  0  0  0  0  0  0
   -5.2473  -46.1992   10.4986 H   0  0  0  0  0  0  0  0  0  0  0  0
   -2.9364  -46.4560    9.6265 H   0  0  0  0  0  0  0  0  0  0  0  0
   -3.0150  -43.8559    5.5907 H   0  0  0  0  0  0  0  0  0  0  0  0
   -3.9572  -45.2071    4.8743 H   0  0  0  0  0  0  0  0  0  0  0  0
   -4.9002  -42.3729    5.5099 H   0  0  0  0  0  0  0  0  0  0  0  0
   -4.8265  -43.1924    3.9132 H   0  0  0  0  0  0  0  0  0  0  0  0
   -7.1488  -43.1075    4.7450 H   0  0  0  0  0  0  0  0  0  0  0  0
   -6.5629  -44.8038    4.6671 H   0  0  0  0  0  0  0  0  0  0  0  0
   -7.6870  -44.6206    6.7491 H   0  0  0  0  0  0  0  0  0  0  0  0
   -6.9464  -43.0228    7.1028 H   0  0  0  0  0  0  0  0  0  0  0  0
  1  2  2  0  0  0  0
  2  3  1  0  0  0  0
  2  4  1  0  0  0  0
  4 11  1  0  0  0  0
  4 26  1  0  0  0  0
  5  6  1  0  0  0  0
  5 10  1  0  0  0  0
  5 26  2  0  0  0  0
  6  7  2  0  0  0  0
  7  8  1  0  0  0  0
  8  9  2  0  0  0  0
  9 10  1  0  0  0  0
 10 11  2  0  0  0  0
 11 12  1  0  0  0  0
 12 13  1  0  0  0  0
 13 14  1  0  0  0  0
 14 15  1  0  0  0  0
 15 16  1  0  0  0  0
 16 19  2  0  0  0  0
 16 21  1  0  0  0  0
 17 18  2  0  0  0  0
 17 20  1  0  0  0  0
 18 19  1  0  0  0  0
 20 21  2  0  0  0  0
 20 25  1  0  0  0  0
 21 22  1  0  0  0  0
 22 23  1  0  0  0  0
 23 24  1  0  0  0  0
 24 25  1  0  0  0  0
  3 27  1  0  0  0  0
  4 28  1  0  0  0  0
  6 29  1  0  0  0  0
  7 30  1  0  0  0  0
  8 31  1  0  0  0  0
  9 32  1  0  0  0  0
 12 33  1  0  0  0  0
 12 34  1  0  0  0  0
 13 35  1  0  0  0  0
 13 36  1  0  0  0  0
 14 37  1  0  0  0  0
 14 38  1  0  0  0  0
 17 39  1  0  0  0  0
 18 40  1  0  0  0  0
 19 41  1  0  0  0  0
 22 42  1  0  0  0  0
 22 43  1  0  0  0  0
 23 44  1  0  0  0  0
 23 45  1  0  0  0  0
 24 46  1  0  0  0  0
 24 47  1  0  0  0  0
 25 48  1  0  0  0  0
 25 49  1  0  0  0  0
M  END
> <r_user_dG.exp>
-8.95356461676206

$$$$
45
  -OEChem-05192314073D
 Structure written by MMmdl.
 49 52  0     1  0  0  0  0  0999 V2000
    3.4855  -49.9426    7.0276 O   0  0  0  0  0  0  0  0  0  0  0  0
    2.8121  -48.9262    6.7501 C   0  0  0  0  0  0  0  0  0  0  0  0
    3.3387  -47.7912    6.7250 O   0  0  0  0  0  0  0  0  0  0  0  0
    1.3656  -49.0984    6.4616 C   0  0  0  0  0  0  0  0  0  0  0  0
   -0.4570  -50.4272    6.2251 C   0  0  0  0  0  0  0  0  0  0  0  0
   -1.3771  -51.4933    6.1604 C   0  0  0  0  0  0  0  0  0  0  0  0
   -2.7279  -51.2247    5.8404 C   0  0  0  0  0  0  0  0  0  0  0  0
   -3.1252  -49.8960    5.5731 C   0  0  0  0  0  0  0  0  0  0  0  0
   -2.1902  -48.8426    5.6378 C   0  0  0  0  0  0  0  0  0  0  0  0
   -0.8351  -49.0777    5.9738 C   0  0  3  0  0  0  0  0  0  0  0  0
    0.3360  -48.2451    6.1279 C   0  0  0  0  0  0  0  0  0  0  0  0
    0.4043  -46.7612    5.9387 C   0  0  0  0  0  0  0  0  0  0  0  0
    0.3098  -45.9594    7.2517 C   0  0  0  0  0  0  0  0  0  0  0  0
   -1.0292  -46.0969    7.9995 C   0  0  0  0  0  0  0  0  0  0  0  0
   -2.0793  -45.5604    7.1983 O   0  0  0  0  0  0  0  0  0  0  0  0
   -3.3471  -45.4671    7.7380 C   0  0  0  0  0  0  0  0  0  0  0  0
   -5.9796  -45.1890    8.7400 C   0  0  0  0  0  0  0  0  0  0  0  0
   -4.9970  -45.8216    9.5182 C   0  0  0  0  0  0  0  0  0  0  0  0
   -3.6869  -45.9651    9.0246 C   0  0  0  0  0  0  0  0  0  0  0  0
   -5.6697  -44.7035    7.4607 C   0  0  0  0  0  0  0  0  0  0  0  0
   -4.3510  -44.8400    6.9519 C   0  0  0  0  0  0  0  0  0  0  0  0
   -4.0014  -44.3412    5.5513 C   0  0  0  0  0  0  0  0  0  0  0  0
   -5.0175  -43.3336    4.9872 C   0  0  0  0  0  0  0  0  0  0  0  0
   -6.4494  -43.8370    5.1794 C   0  0  0  0  0  0  0  0  0  0  0  0
   -6.7716  -44.0165    6.6646 C   0  0  0  0  0  0  0  0  0  0  0  0
    0.8791  -50.3882    6.5090 N   0  0  0  0  0  0  0  0  0  0  0  0
    4.2612  -47.8648    6.9397 H   0  0  0  0  0  0  0  0  0  0  0  0
   -1.0534  -52.5054    6.3534 H   0  0  0  0  0  0  0  0  0  0  0  0
   -3.4489  -52.0278    5.8008 H   0  0  0  0  0  0  0  0  0  0  0  0
   -4.1531  -49.6852    5.3172 H   0  0  0  0  0  0  0  0  0  0  0  0
   -2.5148  -47.8344    5.4264 H   0  0  0  0  0  0  0  0  0  0  0  0
   -1.0735  -48.9436    7.0392 H   0  0  0  0  0  0  0  0  0  0  0  0
    1.3603  -46.5177    5.4522 H   0  0  0  0  0  0  0  0  0  0  0  0
   -0.4272  -46.4566    5.2862 H   0  0  0  0  0  0  0  0  0  0  0  0
    1.1120  -46.3037    7.9210 H   0  0  0  0  0  0  0  0  0  0  0  0
    0.4612  -44.8960    7.0145 H   0  0  0  0  0  0  0  0  0  0  0  0
   -1.2287  -47.1596    8.2015 H   0  0  0  0  0  0  0  0  0  0  0  0
   -0.9761  -45.5466    8.9505 H   0  0  0  0  0  0  0  0  0  0  0  0
   -6.9808  -45.0754    9.1288 H   0  0  0  0  0  0  0  0  0  0  0  0
   -5.2473  -46.1992   10.4986 H   0  0  0  0  0  0  0  0  0  0  0  0
   -2.9364  -46.4560    9.6265 H   0  0  0  0  0  0  0  0  0  0  0  0
   -3.0150  -43.8559    5.5907 H   0  0  0  0  0  0  0  0  0  0  0  0
   -3.9572  -45.2071    4.8743 H   0  0  0  0  0  0  0  0  0  0  0  0
   -4.9002  -42.3729    5.5099 H   0  0  0  0  0  0  0  0  0  0  0  0
   -4.8265  -43.1924    3.9132 H   0  0  0  0  0  0  0  0  0  0  0  0
   -7.1488  -43.1075    4.7450 H   0  0  0  0  0  0  0  0  0  0  0  0
   -6.5629  -44.8038    4.6671 H   0  0  0  0  0  0  0  0  0  0  0  0
   -7.6870  -44.6206    6.7491 H   0  0  0  0  0  0  0  0  0  0  0  0
   -6.9464  -43.0228    7.1028 H   0  0  0  0  0  0  0  0  0  0  0  0
  1  2  2  0  0  0  0
  2  3  1  0  0  0  0
  2  4  1  0  0  0  0
  4 11  2  0  0  0  0
  4 26  1  0  0  0  0
  5  6  1  0  0  0  0
  5 10  1  0  0  0  0
  5 26  2  0  0  0  0
  6  7  2  0  0  0  0
  7  8  1  0  0  0  0
  8  9  2  0  0  0  0
  9 10  1  0  0  0  0
 10 11  1  0  0  0  0
 11 12  1  0  0  0  0
 12 13  1  0  0  0  0
 13 14  1  0  0  0  0
 14 15  1  0  0  0  0
 15 16  1  0  0  0  0
 16 19  2  0  0  0  0
 16 21  1  0  0  0  0
 17 18  2  0  0  0  0
 17 20  1  0  0  0  0
 18 19  1  0  0  0  0
 20 21  2  0  0  0  0
 20 25  1  0  0  0  0
 21 22  1  0  0  0  0
 22 23  1  0  0  0  0
 23 24  1  0  0  0  0
 24 25  1  0  0  0  0
  3 27  1  0  0  0  0
  6 28  1  0  0  0  0
  7 29  1  0  0  0  0
  8 30  1  0  0  0  0
  9 31  1  0  0  0  0
 10 32  1  0  0  0  0
 12 33  1  0  0  0  0
 12 34  1  0  0  0  0
 13 35  1  0  0  0  0
 13 36  1  0  0  0  0
 14 37  1  0  0  0  0
 14 38  1  0  0  0  0
 17 39  1  0  0  0  0
 18 40  1  0  0  0  0
 19 41  1  0  0  0  0
 22 42  1  0  0  0  0
 22 43  1  0  0  0  0
 23 44  1  0  0  0  0
 23 45  1  0  0  0  0
 24 46  1  0  0  0  0
 24 47  1  0  0  0  0
 25 48  1  0  0  0  0
 25 49  1  0  0  0  0
M  END
> <r_user_dG.exp>
-8.95356461676206

$$$$
45
  -OEChem-05192314073D
 Structure written by MMmdl.
 49 52  0     1  0  0  0  0  0999 V2000
    3.4855  -49.9426    7.0276 O   0  0  0  0  0  0  0  0  0  0  0  0
    2.8121  -48.9262    6.7501 C   0  0  0  0  0  0  0  0  0  0  0  0
    3.3387  -47.7912    6.7250 O   0  0  0  0  0  0  0  0  0  0  0  0
    1.3656  -49.0984    6.4616 C   0  0  0  0  0  0  0  0  0  0  0  0
   -0.4570  -50.4272    6.2251 C   0  0  3  0  0  0  0  0  0  0  0  0
   -1.3771  -51.4933    6.1604 C   0  0  0  0  0  0  0  0  0  0  0  0
   -2.7279  -51.2247    5.8404 C   0  0  0  0  0  0  0  0  0  0  0  0
   -3.1252  -49.8960    5.5731 C   0  0  0  0  0  0  0  0  0  0  0  0
   -2.1902  -48.8426    5.6378 C   0  0  0  0  0  0  0  0  0  0  0  0
   -0.8351  -49.0777    5.9738 C   0  0  0  0  0  0  0  0  0  0  0  0
    0.3360  -48.2451    6.1279 C   0  0  0  0  0  0  0  0  0  0  0  0
    0.4043  -46.7612    5.9387 C   0  0  0  0  0  0  0  0  0  0  0  0
    0.3098  -45.9594    7.2517 C   0  0  0  0  0  0  0  0  0  0  0  0
   -1.0292  -46.0969    7.9995 C   0  0  0  0  0  0  0  0  0  0  0  0
   -2.0793  -45.5604    7.1983 O   0  0  0  0  0  0  0  0  0  0  0  0
   -3.3471  -45.4671    7.7380 C   0  0  0  0  0  0  0  0  0  0  0  0
   -5.9796  -45.1890    8.7400 C   0  0  0  0  0  0  0  0  0  0  0  0
   -4.9970  -45.8216    9.5182 C   0  0  0  0  0  0  0  0  0  0  0  0
   -3.6869  -45.9651    9.0246 C   0  0  0  0  0  0  0  0  0  0  0  0
   -5.6697  -44.7035    7.4607 C   0  0  0  0  0  0  0  0  0  0  0  0
   -4.3510  -44.8400    6.9519 C   0  0  0  0  0  0  0  0  0  0  0  0
   -4.0014  -44.3412    5.5513 C   0  0  0  0  0  0  0  0  0  0  0  0
   -5.0175  -43.3336    4.9872 C   0  0  0  0  0  0  0  0  0  0  0  0
   -6.4494  -43.8370    5.1794 C   0  0  0  0  0  0  0  0  0  0  0  0
   -6.7716  -44.0165    6.6646 C   0  0  0  0  0  0  0  0  0  0  0  0
    0.8791  -50.3882    6.5090 N   0  0  0  0  0  0  0  0  0  0  0  0
    4.2612  -47.8648    6.9397 H   0  0  0  0  0  0  0  0  0  0  0  0
   -0.2264  -50.5614    5.1579 H   0  0  0  0  0  0  0  0  0  0  0  0
   -1.0534  -52.5054    6.3534 H   0  0  0  0  0  0  0  0  0  0  0  0
   -3.4489  -52.0278    5.8008 H   0  0  0  0  0  0  0  0  0  0  0  0
   -4.1531  -49.6852    5.3172 H   0  0  0  0  0  0  0  0  0  0  0  0
   -2.5148  -47.8344    5.4264 H   0  0  0  0  0  0  0  0  0  0  0  0
    1.3603  -46.5177    5.4522 H   0  0  0  0  0  0  0  0  0  0  0  0
   -0.4272  -46.4566    5.2862 H   0  0  0  0  0  0  0  0  0  0  0  0
    1.1120  -46.3037    7.9210 H   0  0  0  0  0  0  0  0  0  0  0  0
    0.4612  -44.8960    7.0145 H   0  0  0  0  0  0  0  0  0  0  0  0
   -1.2287  -47.1596    8.2015 H   0  0  0  0  0  0  0  0  0  0  0  0
   -0.9761  -45.5466    8.9505 H   0  0  0  0  0  0  0  0  0  0  0  0
   -6.9808  -45.0754    9.1288 H   0  0  0  0  0  0  0  0  0  0  0  0
   -5.2473  -46.1992   10.4986 H   0  0  0  0  0  0  0  0  0  0  0  0
   -2.9364  -46.4560    9.6265 H   0  0  0  0  0  0  0  0  0  0  0  0
   -3.0150  -43.8559    5.5907 H   0  0  0  0  0  0  0  0  0  0  0  0
   -3.9572  -45.2071    4.8743 H   0  0  0  0  0  0  0  0  0  0  0  0
   -4.9002  -42.3729    5.5099 H   0  0  0  0  0  0  0  0  0  0  0  0
   -4.8265  -43.1924    3.9132 H   0  0  0  0  0  0  0  0  0  0  0  0
   -7.1488  -43.1075    4.7450 H   0  0  0  0  0  0  0  0  0  0  0  0
   -6.5629  -44.8038    4.6671 H   0  0  0  0  0  0  0  0  0  0  0  0
   -7.6870  -44.6206    6.7491 H   0  0  0  0  0  0  0  0  0  0  0  0
   -6.9464  -43.0228    7.1028 H   0  0  0  0  0  0  0  0  0  0  0  0
  1  2  2  0  0  0  0
  2  3  1  0  0  0  0
  2  4  1  0  0  0  0
  4 11  1  0  0  0  0
  4 26  2  0  0  0  0
  5  6  1  0  0  0  0
  5 10  1  0  0  0  0
  5 26  1  0  0  0  0
  6  7  2  0  0  0  0
  7  8  1  0  0  0  0
  8  9  2  0  0  0  0
  9 10  1  0  0  0  0
 10 11  2  0  0  0  0
 11 12  1  0  0  0  0
 12 13  1  0  0  0  0
 13 14  1  0  0  0  0
 14 15  1  0  0  0  0
 15 16  1  0  0  0  0
 16 19  2  0  0  0  0
 16 21  1  0  0  0  0
 17 18  2  0  0  0  0
 17 20  1  0  0  0  0
 18 19  1  0  0  0  0
 20 21  2  0  0  0  0
 20 25  1  0  0  0  0
 21 22  1  0  0  0  0
 22 23  1  0  0  0  0
 23 24  1  0  0  0  0
 24 25  1  0  0  0  0
  3 27  1  0  0  0  0
  5 28  1  0  0  0  0
  6 29  1  0  0  0  0
  7 30  1  0  0  0  0
  8 31  1  0  0  0  0
  9 32  1  0  0  0  0
 12 33  1  0  0  0  0
 12 34  1  0  0  0  0
 13 35  1  0  0  0  0
 13 36  1  0  0  0  0
 14 37  1  0  0  0  0
 14 38  1  0  0  0  0
 17 39  1  0  0  0  0
 18 40  1  0  0  0  0
 19 41  1  0  0  0  0
 22 42  1  0  0  0  0
 22 43  1  0  0  0  0
 23 44  1  0  0  0  0
 23 45  1  0  0  0  0
 24 46  1  0  0  0  0
 24 47  1  0  0  0  0
 25 48  1  0  0  0  0
 25 49  1  0  0  0  0
M  END
> <r_user_dG.exp>
-8.95356461676206

$$$$
45
  -OEChem-05192314073D
 Structure written by MMmdl.
 49 52  0     0  0  0  0  0  0999 V2000
    3.4855  -49.9426    7.0276 O   0  0  0  0  0  0  0  0  0  0  0  0
    2.8121  -48.9262    6.7501 C   0  0  0  0  0  0  0  0  0  0  0  0
    3.3387  -47.7912    6.7250 O   0  0  0  0  0  0  0  0  0  0  0  0
    1.3656  -49.0984    6.4616 C   0  0  0  0  0  0  0  0  0  0  0  0
   -0.4570  -50.4272    6.2251 C   0  0  0  0  0  0  0  0  0  0  0  0
   -1.3771  -51.4933    6.1604 C   0  0  0  0  0  0  0  0  0  0  0  0
   -2.7279  -51.2247    5.8404 C   0  0  0  0  0  0  0  0  0  0  0  0
   -3.1252  -49.8960    5.5731 C   0  0  0  0  0  0  0  0  0  0  0  0
   -2.1902  -48.8426    5.6378 C   0  0  0  0  0  0  0  0  0  0  0  0
   -0.8351  -49.0777    5.9738 C   0  0  0  0  0  0  0  0  0  0  0  0
    0.3360  -48.2451    6.1279 C   0  0  0  0  0  0  0  0  0  0  0  0
    0.4043  -46.7612    5.9387 C   0  0  0  0  0  0  0  0  0  0  0  0
    0.3098  -45.9594    7.2517 C   0  0  0  0  0  0  0  0  0  0  0  0
   -1.0292  -46.0969    7.9995 C   0  0  0  0  0  0  0  0  0  0  0  0
   -2.0793  -45.5604    7.1983 O   0  0  0  0  0  0  0  0  0  0  0  0
   -3.3471  -45.4671    7.7380 C   0  0  0  0  0  0  0  0  0  0  0  0
   -5.9796  -45.1890    8.7400 C   0  0  0  0  0  0  0  0  0  0  0  0
   -4.9970  -45.8216    9.5182 C   0  0  0  0  0  0  0  0  0  0  0  0
   -3.6869  -45.9651    9.0246 C   0  0  0  0  0  0  0  0  0  0  0  0
   -5.6697  -44.7035    7.4607 C   0  0  0  0  0  0  0  0  0  0  0  0
   -4.3510  -44.8400    6.9519 C   0  0  0  0  0  0  0  0  0  0  0  0
   -4.0014  -44.3412    5.5513 C   0  0  0  0  0  0  0  0  0  0  0  0
   -5.0175  -43.3336    4.9872 C   0  0  0  0  0  0  0  0  0  0  0  0
   -6.4494  -43.8370    5.1794 C   0  0  0  0  0  0  0  0  0  0  0  0
   -6.7716  -44.0165    6.6646 C   0  0  0  0  0  0  0  0  0  0  0  0
    0.8791  -50.3882    6.5090 N   0  0  0  0  0  0  0  0  0  0  0  0
    4.2612  -47.8648    6.9397 H   0  0  0  0  0  0  0  0  0  0  0  0
   -1.0534  -52.5054    6.3534 H   0  0  0  0  0  0  0  0  0  0  0  0
   -3.4489  -52.0278    5.8008 H   0  0  0  0  0  0  0  0  0  0  0  0
   -3.5372  -49.8894    4.5532 H   0  0  0  0  0  0  0  0  0  0  0  0
   -3.9220  -49.6547    6.2920 H   0  0  0  0  0  0  0  0  0  0  0  0
   -2.5148  -47.8344    5.4264 H   0  0  0  0  0  0  0  0  0  0  0  0
    1.3603  -46.5177    5.4522 H   0  0  0  0  0  0  0  0  0  0  0  0
   -0.4272  -46.4566    5.2862 H   0  0  0  0  0  0  0  0  0  0  0  0
    1.1120  -46.3037    7.9210 H   0  0  0  0  0  0  0  0  0  0  0  0
    0.4612  -44.8960    7.0145 H   0  0  0  0  0  0  0  0  0  0  0  0
   -1.2287  -47.1596    8.2015 H   0  0  0  0  0  0  0  0  0  0  0  0
   -0.9761  -45.5466    8.9505 H   0  0  0  0  0  0  0  0  0  0  0  0
   -6.9808  -45.0754    9.1288 H   0  0  0  0  0  0  0  0  0  0  0  0
   -5.2473  -46.1992   10.4986 H   0  0  0  0  0  0  0  0  0  0  0  0
   -2.9364  -46.4560    9.6265 H   0  0  0  0  0  0  0  0  0  0  0  0
   -3.0150  -43.8559    5.5907 H   0  0  0  0  0  0  0  0  0  0  0  0
   -3.9572  -45.2071    4.8743 H   0  0  0  0  0  0  0  0  0  0  0  0
   -4.9002  -42.3729    5.5099 H   0  0  0  0  0  0  0  0  0  0  0  0
   -4.8265  -43.1924    3.9132 H   0  0  0  0  0  0  0  0  0  0  0  0
   -7.1488  -43.1075    4.7450 H   0  0  0  0  0  0  0  0  0  0  0  0
   -6.5629  -44.8038    4.6671 H   0  0  0  0  0  0  0  0  0  0  0  0
   -7.6870  -44.6206    6.7491 H   0  0  0  0  0  0  0  0  0  0  0  0
   -6.9464  -43.0228    7.1028 H   0  0  0  0  0  0  0  0  0  0  0  0
  1  2  2  0  0  0  0
  2  3  1  0  0  0  0
  2  4  1  0  0  0  0
  4 11  2  0  0  0  0
  4 26  1  0  0  0  0
  5  6  1  0  0  0  0
  5 10  1  0  0  0  0
  5 26  2  0  0  0  0
  6  7  2  0  0  0  0
  7  8  1  0  0  0  0
  8  9  1  0  0  0  0
  9 10  2  0  0  0  0
 10 11  1  0  0  0  0
 11 12  1  0  0  0  0
 12 13  1  0  0  0  0
 13 14  1  0  0  0  0
 14 15  1  0  0  0  0
 15 16  1  0  0  0  0
 16 19  2  0  0  0  0
 16 21  1  0  0  0  0
 17 18  2  0  0  0  0
 17 20  1  0  0  0  0
 18 19  1  0  0  0  0
 20 21  2  0  0  0  0
 20 25  1  0  0  0  0
 21 22  1  0  0  0  0
 22 23  1  0  0  0  0
 23 24  1  0  0  0  0
 24 25  1  0  0  0  0
  3 27  1  0  0  0  0
  6 28  1  0  0  0  0
  7 29  1  0  0  0  0
  8 30  1  0  0  0  0
  8 31  1  0  0  0  0
  9 32  1  0  0  0  0
 12 33  1  0  0  0  0
 12 34  1  0  0  0  0
 13 35  1  0  0  0  0
 13 36  1  0  0  0  0
 14 37  1  0  0  0  0
 14 38  1  0  0  0  0
 17 39  1  0  0  0  0
 18 40  1  0  0  0  0
 19 41  1  0  0  0  0
 22 42  1  0  0  0  0
 22 43  1  0  0  0  0
 23 44  1  0  0  0  0
 23 45  1  0  0  0  0
 24 46  1  0  0  0  0
 24 47  1  0  0  0  0
 25 48  1  0  0  0  0
 25 49  1  0  0  0  0
M  END
> <r_user_dG.exp>
-8.95356461676206

$$$$
45
  -OEChem-05192314073D
 Structure written by MMmdl.
 49 52  0     0  0  0  0  0  0999 V2000
    3.4855  -49.9426    7.0276 O   0  0  0  0  0  0  0  0  0  0  0  0
    2.8121  -48.9262    6.7501 C   0  0  0  0  0  0  0  0  0  0  0  0
    3.3387  -47.7912    6.7250 O   0  0  0  0  0  0  0  0  0  0  0  0
    1.3656  -49.0984    6.4616 C   0  0  0  0  0  0  0  0  0  0  0  0
   -0.4570  -50.4272    6.2251 C   0  0  0  0  0  0  0  0  0  0  0  0
   -1.3771  -51.4933    6.1604 C   0  0  0  0  0  0  0  0  0  0  0  0
   -2.7279  -51.2247    5.8404 C   0  0  0  0  0  0  0  0  0  0  0  0
   -3.1252  -49.8960    5.5731 C   0  0  0  0  0  0  0  0  0  0  0  0
   -2.1902  -48.8426    5.6378 C   0  0  0  0  0  0  0  0  0  0  0  0
   -0.8351  -49.0777    5.9738 C   0  0  0  0  0  0  0  0  0  0  0  0
    0.3360  -48.2451    6.1279 C   0  0  0  0  0  0  0  0  0  0  0  0
    0.4043  -46.7612    5.9387 C   0  0  0  0  0  0  0  0  0  0  0  0
    0.3098  -45.9594    7.2517 C   0  0  0  0  0  0  0  0  0  0  0  0
   -1.0292  -46.0969    7.9995 C   0  0  0  0  0  0  0  0  0  0  0  0
   -2.0793  -45.5604    7.1983 O   0  0  0  0  0  0  0  0  0  0  0  0
   -3.3471  -45.4671    7.7380 C   0  0  0  0  0  0  0  0  0  0  0  0
   -5.9796  -45.1890    8.7400 C   0  0  0  0  0  0  0  0  0  0  0  0
   -4.9970  -45.8216    9.5182 C   0  0  0  0  0  0  0  0  0  0  0  0
   -3.6869  -45.9651    9.0246 C   0  0  0  0  0  0  0  0  0  0  0  0
   -5.6697  -44.7035    7.4607 C   0  0  0  0  0  0  0  0  0  0  0  0
   -4.3510  -44.8400    6.9519 C   0  0  0  0  0  0  0  0  0  0  0  0
   -4.0014  -44.3412    5.5513 C   0  0  0  0  0  0  0  0  0  0  0  0
   -5.0175  -43.3336    4.9872 C   0  0  0  0  0  0  0  0  0  0  0  0
   -6.4494  -43.8370    5.1794 C   0  0  0  0  0  0  0  0  0  0  0  0
   -6.7716  -44.0165    6.6646 C   0  0  0  0  0  0  0  0  0  0  0  0
    0.8791  -50.3882    6.5090 N   0  0  0  0  0  0  0  0  0  0  0  0
    4.2612  -47.8648    6.9397 H   0  0  0  0  0  0  0  0  0  0  0  0
   -1.0534  -52.5054    6.3534 H   0  0  0  0  0  0  0  0  0  0  0  0
   -2.9695  -51.8177    4.9460 H   0  0  0  0  0  0  0  0  0  0  0  0
   -3.3342  -51.5762    6.6882 H   0  0  0  0  0  0  0  0  0  0  0  0
   -4.1531  -49.6852    5.3172 H   0  0  0  0  0  0  0  0  0  0  0  0
   -2.5148  -47.8344    5.4264 H   0  0  0  0  0  0  0  0  0  0  0  0
    1.3603  -46.5177    5.4522 H   0  0  0  0  0  0  0  0  0  0  0  0
   -0.4272  -46.4566    5.2862 H   0  0  0  0  0  0  0  0  0  0  0  0
    1.1120  -46.3037    7.9210 H   0  0  0  0  0  0  0  0  0  0  0  0
    0.4612  -44.8960    7.0145 H   0  0  0  0  0  0  0  0  0  0  0  0
   -1.2287  -47.1596    8.2015 H   0  0  0  0  0  0  0  0  0  0  0  0
   -0.9761  -45.5466    8.9505 H   0  0  0  0  0  0  0  0  0  0  0  0
   -6.9808  -45.0754    9.1288 H   0  0  0  0  0  0  0  0  0  0  0  0
   -5.2473  -46.1992   10.4986 H   0  0  0  0  0  0  0  0  0  0  0  0
   -2.9364  -46.4560    9.6265 H   0  0  0  0  0  0  0  0  0  0  0  0
   -3.0150  -43.8559    5.5907 H   0  0  0  0  0  0  0  0  0  0  0  0
   -3.9572  -45.2071    4.8743 H   0  0  0  0  0  0  0  0  0  0  0  0
   -4.9002  -42.3729    5.5099 H   0  0  0  0  0  0  0  0  0  0  0  0
   -4.8265  -43.1924    3.9132 H   0  0  0  0  0  0  0  0  0  0  0  0
   -7.1488  -43.1075    4.7450 H   0  0  0  0  0  0  0  0  0  0  0  0
   -6.5629  -44.8038    4.6671 H   0  0  0  0  0  0  0  0  0  0  0  0
   -7.6870  -44.6206    6.7491 H   0  0  0  0  0  0  0  0  0  0  0  0
   -6.9464  -43.0228    7.1028 H   0  0  0  0  0  0  0  0  0  0  0  0
  1  2  2  0  0  0  0
  2  3  1  0  0  0  0
  2  4  1  0  0  0  0
  4 11  1  0  0  0  0
  4 26  2  0  0  0  0
  5  6  2  0  0  0  0
  5 10  1  0  0  0  0
  5 26  1  0  0  0  0
  6  7  1  0  0  0  0
  7  8  1  0  0  0  0
  8  9  2  0  0  0  0
  9 10  1  0  0  0  0
 10 11  2  0  0  0  0
 11 12  1  0  0  0  0
 12 13  1  0  0  0  0
 13 14  1  0  0  0  0
 14 15  1  0  0  0  0
 15 16  1  0  0  0  0
 16 19  2  0  0  0  0
 16 21  1  0  0  0  0
 17 18  2  0  0  0  0
 17 20  1  0  0  0  0
 18 19  1  0  0  0  0
 20 21  2  0  0  0  0
 20 25  1  0  0  0  0
 21 22  1  0  0  0  0
 22 23  1  0  0  0  0
 23 24  1  0  0  0  0
 24 25  1  0  0  0  0
  3 27  1  0  0  0  0
  6 28  1  0  0  0  0
  7 29  1  0  0  0  0
  7 30  1  0  0  0  0
  8 31  1  0  0  0  0
  9 32  1  0  0  0  0
 12 33  1  0  0  0  0
 12 34  1  0  0  0  0
 13 35  1  0  0  0  0
 13 36  1  0  0  0  0
 14 37  1  0  0  0  0
 14 38  1  0  0  0  0
 17 39  1  0  0  0  0
 18 40  1  0  0  0  0
 19 41  1  0  0  0  0
 22 42  1  0  0  0  0
 22 43  1  0  0  0  0
 23 44  1  0  0  0  0
 23 45  1  0  0  0  0
 24 46  1  0  0  0  0
 24 47  1  0  0  0  0
 25 48  1  0  0  0  0
 25 49  1  0  0  0  0
M  END
> <r_user_dG.exp>
-8.95356461676206

$$$$
45
  -OEChem-05192314073D
 Structure written by MMmdl.
 49 52  0     0  0  0  0  0  0999 V2000
    3.4855  -49.9426    7.0276 O   0  0  0  0  0  0  0  0  0  0  0  0
    2.8121  -48.9262    6.7501 C   0  0  0  0  0  0  0  0  0  0  0  0
    3.3387  -47.7912    6.7250 O   0  0  0  0  0  0  0  0  0  0  0  0
    1.3656  -49.0984    6.4616 C   0  0  0  0  0  0  0  0  0  0  0  0
   -0.4570  -50.4272    6.2251 C   0  0  0  0  0  0  0  0  0  0  0  0
   -1.3771  -51.4933    6.1604 C   0  0  0  0  0  0  0  0  0  0  0  0
   -2.7279  -51.2247    5.8404 C   0  0  0  0  0  0  0  0  0  0  0  0
   -3.1252  -49.8960    5.5731 C   0  0  0  0  0  0  0  0  0  0  0  0
   -2.1902  -48.8426    5.6378 C   0  0  0  0  0  0  0  0  0  0  0  0
   -0.8351  -49.0777    5.9738 C   0  0  0  0  0  0  0  0  0  0  0  0
    0.3360  -48.2451    6.1279 C   0  0  0  0  0  0  0  0  0  0  0  0
    0.4043  -46.7612    5.9387 C   0  0  0  0  0  0  0  0  0  0  0  0
    0.3098  -45.9594    7.2517 C   0  0  0  0  0  0  0  0  0  0  0  0
   -1.0292  -46.0969    7.9995 C   0  0  0  0  0  0  0  0  0  0  0  0
   -2.0793  -45.5604    7.1983 O   0  0  0  0  0  0  0  0  0  0  0  0
   -3.3471  -45.4671    7.7380 C   0  0  0  0  0  0  0  0  0  0  0  0
   -5.9796  -45.1890    8.7400 C   0  0  0  0  0  0  0  0  0  0  0  0
   -4.9970  -45.8216    9.5182 C   0  0  0  0  0  0  0  0  0  0  0  0
   -3.6869  -45.9651    9.0246 C   0  0  0  0  0  0  0  0  0  0  0  0
   -5.6697  -44.7035    7.4607 C   0  0  0  0  0  0  0  0  0  0  0  0
   -4.3510  -44.8400    6.9519 C   0  0  0  0  0  0  0  0  0  0  0  0
   -4.0014  -44.3412    5.5513 C   0  0  0  0  0  0  0  0  0  0  0  0
   -5.0175  -43.3336    4.9872 C   0  0  0  0  0  0  0  0  0  0  0  0
   -6.4494  -43.8370    5.1794 C   0  0  0  0  0  0  0  0  0  0  0  0
   -6.7716  -44.0165    6.6646 C   0  0  0  0  0  0  0  0  0  0  0  0
    0.8791  -50.3882    6.5090 N   0  0  0  0  0  0  0  0  0  0  0  0
    4.2612  -47.8648    6.9397 H   0  0  0  0  0  0  0  0  0  0  0  0
   -1.0014  -52.1955    5.4016 H   0  0  0  0  0  0  0  0  0  0  0  0
   -1.3721  -51.9814    7.1462 H   0  0  0  0  0  0  0  0  0  0  0  0
   -3.4489  -52.0278    5.8008 H   0  0  0  0  0  0  0  0  0  0  0  0
   -4.1531  -49.6852    5.3172 H   0  0  0  0  0  0  0  0  0  0  0  0
   -2.5148  -47.8344    5.4264 H   0  0  0  0  0  0  0  0  0  0  0  0
    1.3603  -46.5177    5.4522 H   0  0  0  0  0  0  0  0  0  0  0  0
   -0.4272  -46.4566    5.2862 H   0  0  0  0  0  0  0  0  0  0  0  0
    1.1120  -46.3037    7.9210 H   0  0  0  0  0  0  0  0  0  0  0  0
    0.4612  -44.8960    7.0145 H   0  0  0  0  0  0  0  0  0  0  0  0
   -1.2287  -47.1596    8.2015 H   0  0  0  0  0  0  0  0  0  0  0  0
   -0.9761  -45.5466    8.9505 H   0  0  0  0  0  0  0  0  0  0  0  0
   -6.9808  -45.0754    9.1288 H   0  0  0  0  0  0  0  0  0  0  0  0
   -5.2473  -46.1992   10.4986 H   0  0  0  0  0  0  0  0  0  0  0  0
   -2.9364  -46.4560    9.6265 H   0  0  0  0  0  0  0  0  0  0  0  0
   -3.0150  -43.8559    5.5907 H   0  0  0  0  0  0  0  0  0  0  0  0
   -3.9572  -45.2071    4.8743 H   0  0  0  0  0  0  0  0  0  0  0  0
   -4.9002  -42.3729    5.5099 H   0  0  0  0  0  0  0  0  0  0  0  0
   -4.8265  -43.1924    3.9132 H   0  0  0  0  0  0  0  0  0  0  0  0
   -7.1488  -43.1075    4.7450 H   0  0  0  0  0  0  0  0  0  0  0  0
   -6.5629  -44.8038    4.6671 H   0  0  0  0  0  0  0  0  0  0  0  0
   -7.6870  -44.6206    6.7491 H   0  0  0  0  0  0  0  0  0  0  0  0
   -6.9464  -43.0228    7.1028 H   0  0  0  0  0  0  0  0  0  0  0  0
  1  2  2  0  0  0  0
  2  3  1  0  0  0  0
  2  4  1  0  0  0  0
  4 11  2  0  0  0  0
  4 26  1  0  0  0  0
  5  6  1  0  0  0  0
  5 10  1  0  0  0  0
  5 26  2  0  0  0  0
  6  7  1  0  0  0  0
  7  8  2  0  0  0  0
  8  9  1  0  0  0  0
  9 10  2  0  0  0  0
 10 11  1  0  0  0  0
 11 12  1  0  0  0  0
 12 13  1  0  0  0  0
 13 14  1  0  0  0  0
 14 15  1  0  0  0  0
 15 16  1  0  0  0  0
 16 19  2  0  0  0  0
 16 21  1  0  0  0  0
 17 18  2  0  0  0  0
 17 20  1  0  0  0  0
 18 19  1  0  0  0  0
 20 21  2  0  0  0  0
 20 25  1  0  0  0  0
 21 22  1  0  0  0  0
 22 23  1  0  0  0  0
 23 24  1  0  0  0  0
 24 25  1  0  0  0  0
  3 27  1  0  0  0  0
  6 28  1  0  0  0  0
  6 29  1  0  0  0  0
  7 30  1  0  0  0  0
  8 31  1  0  0  0  0
  9 32  1  0  0  0  0
 12 33  1  0  0  0  0
 12 34  1  0  0  0  0
 13 35  1  0  0  0  0
 13 36  1  0  0  0  0
 14 37  1  0  0  0  0
 14 38  1  0  0  0  0
 17 39  1  0  0  0  0
 18 40  1  0  0  0  0
 19 41  1  0  0  0  0
 22 42  1  0  0  0  0
 22 43  1  0  0  0  0
 23 44  1  0  0  0  0
 23 45  1  0  0  0  0
 24 46  1  0  0  0  0
 24 47  1  0  0  0  0
 25 48  1  0  0  0  0
 25 49  1  0  0  0  0
M  END
> <r_user_dG.exp>
-8.95356461676206

$$$$
45
  -OEChem-05192314073D
 Structure written by MMmdl.
 49 52  0     0  0  0  0  0  0999 V2000
    3.4855  -49.9426    7.0276 O   0  0  0  0  0  0  0  0  0  0  0  0
    2.8121  -48.9262    6.7501 C   0  0  0  0  0  0  0  0  0  0  0  0
    3.3387  -47.7912    6.7250 O   0  0  0  0  0  0  0  0  0  0  0  0
    1.3656  -49.0984    6.4616 C   0  0  0  0  0  0  0  0  0  0  0  0
   -0.4570  -50.4272    6.2251 C   0  0  0  0  0  0  0  0  0  0  0  0
   -1.3771  -51.4933    6.1604 C   0  0  0  0  0  0  0  0  0  0  0  0
   -2.7279  -51.2247    5.8404 C   0  0  0  0  0  0  0  0  0  0  0  0
   -3.1252  -49.8960    5.5731 C   0  0  0  0  0  0  0  0  0  0  0  0
   -2.1902  -48.8426    5.6378 C   0  0  0  0  0  0  0  0  0  0  0  0
   -0.8351  -49.0777    5.9738 C   0  0  0  0  0  0  0  0  0  0  0  0
    0.3360  -48.2451    6.1279 C   0  0  0  0  0  0  0  0  0  0  0  0
    0.4043  -46.7612    5.9387 C   0  0  0  0  0  0  0  0  0  0  0  0
    0.3098  -45.9594    7.2517 C   0  0  0  0  0  0  0  0  0  0  0  0
   -1.0292  -46.0969    7.9995 C   0  0  0  0  0  0  0  0  0  0  0  0
   -2.0793  -45.5604    7.1983 O   0  0  0  0  0  0  0  0  0  0  0  0
   -3.3471  -45.4671    7.7380 C   0  0  0  0  0  0  0  0  0  0  0  0
   -5.9796  -45.1890    8.7400 C   0  0  0  0  0  0  0  0  0  0  0  0
   -4.9970  -45.8216    9.5182 C   0  0  0  0  0  0  0  0  0  0  0  0
   -3.6869  -45.9651    9.0246 C   0  0  0  0  0  0  0  0  0  0  0  0
   -5.6697  -44.7035    7.4607 C   0  0  0  0  0  0  0  0  0  0  0  0
   -4.3510  -44.8400    6.9519 C   0  0  0  0  0  0  0  0  0  0  0  0
   -4.0014  -44.3412    5.5513 C   0  0  0  0  0  0  0  0  0  0  0  0
   -5.0175  -43.3336    4.9872 C   0  0  0  0  0  0  0  0  0  0  0  0
   -6.4494  -43.8370    5.1794 C   0  0  0  0  0  0  0  0  0  0  0  0
   -6.7716  -44.0165    6.6646 C   0  0  0  0  0  0  0  0  0  0  0  0
    0.8791  -50.3882    6.5090 N   0  0  0  0  0  0  0  0  0  0  0  0
    4.2612  -47.8648    6.9397 H   0  0  0  0  0  0  0  0  0  0  0  0
   -1.0534  -52.5054    6.3534 H   0  0  0  0  0  0  0  0  0  0  0  0
   -3.4489  -52.0278    5.8008 H   0  0  0  0  0  0  0  0  0  0  0  0
   -4.1531  -49.6852    5.3172 H   0  0  0  0  0  0  0  0  0  0  0  0
   -2.1864  -48.3692    4.6449 H   0  0  0  0  0  0  0  0  0  0  0  0
   -2.5757  -48.1303    6.3821 H   0  0  0  0  0  0  0  0  0  0  0  0
    1.3603  -46.5177    5.4522 H   0  0  0  0  0  0  0  0  0  0  0  0
   -0.4272  -46.4566    5.2862 H   0  0  0  0  0  0  0  0  0  0  0  0
    1.1120  -46.3037    7.9210 H   0  0  0  0  0  0  0  0  0  0  0  0
    0.4612  -44.8960    7.0145 H   0  0  0  0  0  0  0  0  0  0  0  0
   -1.2287  -47.1596    8.2015 H   0  0  0  0  0  0  0  0  0  0  0  0
   -0.9761  -45.5466    8.9505 H   0  0  0  0  0  0  0  0  0  0  0  0
   -6.9808  -45.0754    9.1288 H   0  0  0  0  0  0  0  0  0  0  0  0
   -5.2473  -46.1992   10.4986 H   0  0  0  0  0  0  0  0  0  0  0  0
   -2.9364  -46.4560    9.6265 H   0  0  0  0  0  0  0  0  0  0  0  0
   -3.0150  -43.8559    5.5907 H   0  0  0  0  0  0  0  0  0  0  0  0
   -3.9572  -45.2071    4.8743 H   0  0  0  0  0  0  0  0  0  0  0  0
   -4.9002  -42.3729    5.5099 H   0  0  0  0  0  0  0  0  0  0  0  0
   -4.8265  -43.1924    3.9132 H   0  0  0  0  0  0  0  0  0  0  0  0
   -7.1488  -43.1075    4.7450 H   0  0  0  0  0  0  0  0  0  0  0  0
   -6.5629  -44.8038    4.6671 H   0  0  0  0  0  0  0  0  0  0  0  0
   -7.6870  -44.6206    6.7491 H   0  0  0  0  0  0  0  0  0  0  0  0
   -6.9464  -43.0228    7.1028 H   0  0  0  0  0  0  0  0  0  0  0  0
  1  2  2  0  0  0  0
  2  3  1  0  0  0  0
  2  4  1  0  0  0  0
  4 11  1  0  0  0  0
  4 26  2  0  0  0  0
  5  6  2  0  0  0  0
  5 10  1  0  0  0  0
  5 26  1  0  0  0  0
  6  7  1  0  0  0  0
  7  8  2  0  0  0  0
  8  9  1  0  0  0  0
  9 10  1  0  0  0  0
 10 11  2  0  0  0  0
 11 12  1  0  0  0  0
 12 13  1  0  0  0  0
 13 14  1  0  0  0  0
 14 15  1  0  0  0  0
 15 16  1  0  0  0  0
 16 19  2  0  0  0  0
 16 21  1  0  0  0  0
 17 18  2  0  0  0  0
 17 20  1  0  0  0  0
 18 19  1  0  0  0  0
 20 21  2  0  0  0  0
 20 25  1  0  0  0  0
 21 22  1  0  0  0  0
 22 23  1  0  0  0  0
 23 24  1  0  0  0  0
 24 25  1  0  0  0  0
  3 27  1  0  0  0  0
  6 28  1  0  0  0  0
  7 29  1  0  0  0  0
  8 30  1  0  0  0  0
  9 31  1  0  0  0  0
  9 32  1  0  0  0  0
 12 33  1  0  0  0  0
 12 34  1  0  0  0  0
 13 35  1  0  0  0  0
 13 36  1  0  0  0  0
 14 37  1  0  0  0  0
 14 38  1  0  0  0  0
 17 39  1  0  0  0  0
 18 40  1  0  0  0  0
 19 41  1  0  0  0  0
 22 42  1  0  0  0  0
 22 43  1  0  0  0  0
 23 44  1  0  0  0  0
 23 45  1  0  0  0  0
 24 46  1  0  0  0  0
 24 47  1  0  0  0  0
 25 48  1  0  0  0  0
 25 49  1  0  0  0  0
M  END
> <r_user_dG.exp>
-8.95356461676206

$$$$
45
  -OEChem-05192314073D
 Structure written by MMmdl.
 49 52  0     0  0  0  0  0  0999 V2000
    3.4855  -49.9426    7.0276 O   0  0  0  0  0  0  0  0  0  0  0  0
    2.8121  -48.9262    6.7501 C   0  0  0  0  0  0  0  0  0  0  0  0
    3.3387  -47.7912    6.7250 O   0  0  0  0  0  0  0  0  0  0  0  0
    1.3656  -49.0984    6.4616 C   0  0  0  0  0  0  0  0  0  0  0  0
   -0.4570  -50.4272    6.2251 C   0  0  0  0  0  0  0  0  0  0  0  0
   -1.3771  -51.4933    6.1604 C   0  0  0  0  0  0  0  0  0  0  0  0
   -2.7279  -51.2247    5.8404 C   0  0  0  0  0  0  0  0  0  0  0  0
   -3.1252  -49.8960    5.5731 C   0  0  0  0  0  0  0  0  0  0  0  0
   -2.1902  -48.8426    5.6378 C   0  0  0  0  0  0  0  0  0  0  0  0
   -0.8351  -49.0777    5.9738 C   0  0  0  0  0  0  0  0  0  0  0  0
    0.3360  -48.2451    6.1279 C   0  0  0  0  0  0  0  0  0  0  0  0
    0.4043  -46.7612    5.9387 C   0  0  0  0  0  0  0  0  0  0  0  0
    0.3098  -45.9594    7.2517 C   0  0  0  0  0  0  0  0  0  0  0  0
   -1.0292  -46.0969    7.9995 C   0  0  0  0  0  0  0  0  0  0  0  0
   -2.0793  -45.5604    7.1983 O   0  0  0  0  0  0  0  0  0  0  0  0
   -3.3471  -45.4671    7.7380 C   0  0  0  0  0  0  0  0  0  0  0  0
   -5.9796  -45.1890    8.7400 C   0  0  0  0  0  0  0  0  0  0  0  0
   -4.9970  -45.8216    9.5182 C   0  0  0  0  0  0  0  0  0  0  0  0
   -3.6869  -45.9651    9.0246 C   0  0  0  0  0  0  0  0  0  0  0  0
   -5.6697  -44.7035    7.4607 C   0  0  0  0  0  0  0  0  0  0  0  0
   -4.3510  -44.8400    6.9519 C   0  0  0  0  0  0  0  0  0  0  0  0
   -4.0014  -44.3412    5.5513 C   0  0  0  0  0  0  0  0  0  0  0  0
   -5.0175  -43.3336    4.9872 C   0  0  0  0  0  0  0  0  0  0  0  0
   -6.4494  -43.8370    5.1794 C   0  0  0  0  0  0  0  0  0  0  0  0
   -6.7716  -44.0165    6.6646 C   0  0  0  0  0  0  0  0  0  0  0  0
    0.8791  -50.3882    6.5090 N   0  0  0  0  0  0  0  0  0  0  0  0
    2.9269  -50.7105    6.9995 H   0  0  0  0  0  0  0  0  0  0  0  0
    2.6831  -47.1424    6.4976 H   0  0  0  0  0  0  0  0  0  0  0  0
   -1.0534  -52.5054    6.3534 H   0  0  0  0  0  0  0  0  0  0  0  0
   -3.4489  -52.0278    5.8008 H   0  0  0  0  0  0  0  0  0  0  0  0
   -4.1531  -49.6852    5.3172 H   0  0  0  0  0  0  0  0  0  0  0  0
   -2.5148  -47.8344    5.4264 H   0  0  0  0  0  0  0  0  0  0  0  0
    1.3603  -46.5177    5.4522 H   0  0  0  0  0  0  0  0  0  0  0  0
   -0.4272  -46.4566    5.2862 H   0  0  0  0  0  0  0  0  0  0  0  0
    1.1120  -46.3037    7.9210 H   0  0  0  0  0  0  0  0  0  0  0  0
    0.4612  -44.8960    7.0145 H   0  0  0  0  0  0  0  0  0  0  0  0
   -1.2287  -47.1596    8.2015 H   0  0  0  0  0  0  0  0  0  0  0  0
   -0.9761  -45.5466    8.9505 H   0  0  0  0  0  0  0  0  0  0  0  0
   -6.9808  -45.0754    9.1288 H   0  0  0  0  0  0  0  0  0  0  0  0
   -5.2473  -46.1992   10.4986 H   0  0  0  0  0  0  0  0  0  0  0  0
   -2.9364  -46.4560    9.6265 H   0  0  0  0  0  0  0  0  0  0  0  0
   -3.0150  -43.8559    5.5907 H   0  0  0  0  0  0  0  0  0  0  0  0
   -3.9572  -45.2071    4.8743 H   0  0  0  0  0  0  0  0  0  0  0  0
   -4.9002  -42.3729    5.5099 H   0  0  0  0  0  0  0  0  0  0  0  0
   -4.8265  -43.1924    3.9132 H   0  0  0  0  0  0  0  0  0  0  0  0
   -7.1488  -43.1075    4.7450 H   0  0  0  0  0  0  0  0  0  0  0  0
   -6.5629  -44.8038    4.6671 H   0  0  0  0  0  0  0  0  0  0  0  0
   -7.6870  -44.6206    6.7491 H   0  0  0  0  0  0  0  0  0  0  0  0
   -6.9464  -43.0228    7.1028 H   0  0  0  0  0  0  0  0  0  0  0  0
  1  2  1  0  0  0  0
  2  3  1  0  0  0  0
  2  4  2  0  0  0  0
  4 11  1  0  0  0  0
  4 26  1  0  0  0  0
  5  6  1  0  0  0  0
  5 10  1  0  0  0  0
  5 26  2  0  0  0  0
  6  7  2  0  0  0  0
  7  8  1  0  0  0  0
  8  9  2  0  0  0  0
  9 10  1  0  0  0  0
 10 11  2  0  0  0  0
 11 12  1  0  0  0  0
 12 13  1  0  0  0  0
 13 14  1  0  0  0  0
 14 15  1  0  0  0  0
 15 16  1  0  0  0  0
 16 19  2  0  0  0  0
 16 21  1  0  0  0  0
 17 18  2  0  0  0  0
 17 20  1  0  0  0  0
 18 19  1  0  0  0  0
 20 21  2  0  0  0  0
 20 25  1  0  0  0  0
 21 22  1  0  0  0  0
 22 23  1  0  0  0  0
 23 24  1  0  0  0  0
 24 25  1  0  0  0  0
  1 27  1  0  0  0  0
  3 28  1  0  0  0  0
  6 29  1  0  0  0  0
  7 30  1  0  0  0  0
  8 31  1  0  0  0  0
  9 32  1  0  0  0  0
 12 33  1  0  0  0  0
 12 34  1  0  0  0  0
 13 35  1  0  0  0  0
 13 36  1  0  0  0  0
 14 37  1  0  0  0  0
 14 38  1  0  0  0  0
 17 39  1  0  0  0  0
 18 40  1  0  0  0  0
 19 41  1  0  0  0  0
 22 42  1  0  0  0  0
 22 43  1  0  0  0  0
 23 44  1  0  0  0  0
 23 45  1  0  0  0  0
 24 46  1  0  0  0  0
 24 47  1  0  0  0  0
 25 48  1  0  0  0  0
 25 49  1  0  0  0  0
M  END
> <r_user_dG.exp>
-8.95356461676206

$$$$
