39
  -OEChem-05162309453D
 Structure written by MMmdl.
 49 52  0     0  0  0  0  0  0999 V2000
    3.8280  -50.6234    7.4838 O   0  0  0  0  0  0  0  0  0  0  0  0
    3.3210  -49.6151    6.9243 C   0  0  0  0  0  0  0  0  0  0  0  0
    3.9054  -48.5248    6.8176 O   0  0  0  0  0  0  0  0  0  0  0  0
    1.9393  -49.7707    6.3969 C   0  0  0  0  0  0  0  0  0  0  0  0
   -0.0209  -50.9269    6.3143 C   0  0  0  0  0  0  0  0  0  0  0  0
   -1.0754  -51.8407    6.4953 C   0  0  0  0  0  0  0  0  0  0  0  0
   -2.3593  -51.5145    6.0248 C   0  0  0  0  0  0  0  0  0  0  0  0
   -2.5689  -50.3046    5.3500 C   0  0  0  0  0  0  0  0  0  0  0  0
   -1.5021  -49.4040    5.1503 C   0  0  0  0  0  0  0  0  0  0  0  0
   -0.2163  -49.6827    5.6368 C   0  0  0  0  0  0  0  0  0  0  0  0
    1.0640  -48.9793    5.6739 C   0  0  0  0  0  0  0  0  0  0  0  0
    1.3228  -47.6243    5.1362 C   0  0  0  0  0  0  0  0  0  0  0  0
    0.4437  -46.5592    5.8286 C   0  0  0  0  0  0  0  0  0  0  0  0
    0.1816  -46.7275    7.3595 C   0  0  0  0  0  0  0  0  0  0  0  0
   -0.4798  -45.6317    7.9896 O   0  0  0  0  0  0  0  0  0  0  0  0
   -1.8076  -45.4558    7.6772 C   0  0  0  0  0  0  0  0  0  0  0  0
   -2.8302  -45.7085    8.6264 C   0  0  0  0  0  0  0  0  0  0  0  0
   -4.1835  -45.4281    8.3011 C   0  0  0  0  0  0  0  0  0  0  0  0
   -4.5494  -44.9452    7.0122 C   0  0  0  0  0  0  0  0  0  0  0  0
   -3.5003  -44.7379    6.0858 C   0  0  0  0  0  0  0  0  0  0  0  0
   -2.1611  -44.9745    6.4195 C   0  0  0  0  0  0  0  0  0  0  0  0
    1.2913  -50.9433    6.7123 N   0  0  0  0  0  0  0  0  0  0  0  0
   -8.6255  -44.3363    5.6579 C   0  0  0  0  0  0  0  0  0  0  0  0
   -7.5720  -43.6313    5.0628 C   0  0  0  0  0  0  0  0  0  0  0  0
   -6.2570  -43.7913    5.5445 C   0  0  0  0  0  0  0  0  0  0  0  0
   -5.9622  -44.6926    6.6073 C   0  0  0  0  0  0  0  0  0  0  0  0
   -7.0522  -45.3703    7.2070 C   0  0  0  0  0  0  0  0  0  0  0  0
   -8.3685  -45.1909    6.7365 C   0  0  0  0  0  0  0  0  0  0  0  0
    4.7655  -48.5857    7.2163 H   0  0  0  0  0  0  0  0  0  0  0  0
   -0.9000  -52.7840    6.9911 H   0  0  0  0  0  0  0  0  0  0  0  0
   -3.1826  -52.1953    6.1832 H   0  0  0  0  0  0  0  0  0  0  0  0
   -3.5538  -50.0601    4.9804 H   0  0  0  0  0  0  0  0  0  0  0  0
   -1.6782  -48.4836    4.6134 H   0  0  0  0  0  0  0  0  0  0  0  0
    2.3815  -47.3727    5.2972 H   0  0  0  0  0  0  0  0  0  0  0  0
    1.1050  -47.6207    4.0580 H   0  0  0  0  0  0  0  0  0  0  0  0
    0.9308  -45.5838    5.6826 H   0  0  0  0  0  0  0  0  0  0  0  0
   -0.5340  -46.5600    5.3245 H   0  0  0  0  0  0  0  0  0  0  0  0
   -0.4380  -47.6253    7.5014 H   0  0  0  0  0  0  0  0  0  0  0  0
    1.1524  -46.8697    7.8567 H   0  0  0  0  0  0  0  0  0  0  0  0
   -2.5800  -46.1138    9.5957 H   0  0  0  0  0  0  0  0  0  0  0  0
   -4.9503  -45.5840    9.0455 H   0  0  0  0  0  0  0  0  0  0  0  0
   -3.7393  -44.3871    5.0927 H   0  0  0  0  0  0  0  0  0  0  0  0
   -1.3896  -44.7804    5.6891 H   0  0  0  0  0  0  0  0  0  0  0  0
    1.7256  -51.7153    7.1764 H   0  0  0  0  0  0  0  0  0  0  0  0
   -9.6329  -44.2211    5.2860 H   0  0  0  0  0  0  0  0  0  0  0  0
   -7.7670  -42.9654    4.2352 H   0  0  0  0  0  0  0  0  0  0  0  0
   -5.4569  -43.2190    5.0988 H   0  0  0  0  0  0  0  0  0  0  0  0
   -6.8714  -46.0354    8.0385 H   0  0  0  0  0  0  0  0  0  0  0  0
   -9.1842  -45.7161    7.2111 H   0  0  0  0  0  0  0  0  0  0  0  0
  1  2  2  0  0  0  0
  2  3  1  0  0  0  0
  2  4  1  0  0  0  0
  4 11  2  0  0  0  0
  4 22  1  0  0  0  0
  5  6  2  0  0  0  0
  5 10  1  0  0  0  0
  5 22  1  0  0  0  0
  6  7  1  0  0  0  0
  7  8  2  0  0  0  0
  8  9  1  0  0  0  0
  9 10  2  0  0  0  0
 10 11  1  0  0  0  0
 11 12  1  0  0  0  0
 12 13  1  0  0  0  0
 13 14  1  0  0  0  0
 14 15  1  0  0  0  0
 15 16  1  0  0  0  0
 16 17  2  0  0  0  0
 16 21  1  0  0  0  0
 17 18  1  0  0  0  0
 18 19  2  0  0  0  0
 19 20  1  0  0  0  0
 19 26  1  0  0  0  0
 20 21  2  0  0  0  0
 23 24  2  0  0  0  0
 23 28  1  0  0  0  0
 24 25  1  0  0  0  0
 25 26  2  0  0  0  0
 26 27  1  0  0  0  0
 27 28  2  0  0  0  0
  3 29  1  0  0  0  0
  6 30  1  0  0  0  0
  7 31  1  0  0  0  0
  8 32  1  0  0  0  0
  9 33  1  0  0  0  0
 12 34  1  0  0  0  0
 12 35  1  0  0  0  0
 13 36  1  0  0  0  0
 13 37  1  0  0  0  0
 14 38  1  0  0  0  0
 14 39  1  0  0  0  0
 17 40  1  0  0  0  0
 18 41  1  0  0  0  0
 20 42  1  0  0  0  0
 21 43  1  0  0  0  0
 22 44  1  0  0  0  0
 23 45  1  0  0  0  0
 24 46  1  0  0  0  0
 25 47  1  0  0  0  0
 27 48  1  0  0  0  0
 28 49  1  0  0  0  0
M  END
> <r_user_dG.exp>
-7.02680029426089

$$$$
39
  -OEChem-05162309453D
 Structure written by MMmdl.
 49 52  0     1  0  0  0  0  0999 V2000
    3.8280  -50.6234    7.4838 O   0  0  0  0  0  0  0  0  0  0  0  0
    3.3210  -49.6151    6.9243 C   0  0  0  0  0  0  0  0  0  0  0  0
    3.9054  -48.5248    6.8176 O   0  0  0  0  0  0  0  0  0  0  0  0
    1.9393  -49.7707    6.3969 C   0  0  0  0  0  0  0  0  0  0  0  0
   -0.0209  -50.9269    6.3143 C   0  0  0  0  0  0  0  0  0  0  0  0
   -1.0754  -51.8407    6.4953 C   0  0  0  0  0  0  0  0  0  0  0  0
   -2.3593  -51.5145    6.0248 C   0  0  0  0  0  0  0  0  0  0  0  0
   -2.5689  -50.3046    5.3500 C   0  0  0  0  0  0  0  0  0  0  0  0
   -1.5021  -49.4040    5.1503 C   0  0  0  0  0  0  0  0  0  0  0  0
   -0.2163  -49.6827    5.6368 C   0  0  0  0  0  0  0  0  0  0  0  0
    1.0640  -48.9793    5.6739 C   0  0  3  0  0  0  0  0  0  0  0  0
    1.3228  -47.6243    5.1362 C   0  0  0  0  0  0  0  0  0  0  0  0
    0.4437  -46.5592    5.8286 C   0  0  0  0  0  0  0  0  0  0  0  0
    0.1816  -46.7275    7.3595 C   0  0  0  0  0  0  0  0  0  0  0  0
   -0.4798  -45.6317    7.9896 O   0  0  0  0  0  0  0  0  0  0  0  0
   -1.8076  -45.4558    7.6772 C   0  0  0  0  0  0  0  0  0  0  0  0
   -2.8302  -45.7085    8.6264 C   0  0  0  0  0  0  0  0  0  0  0  0
   -4.1835  -45.4281    8.3011 C   0  0  0  0  0  0  0  0  0  0  0  0
   -4.5494  -44.9452    7.0122 C   0  0  0  0  0  0  0  0  0  0  0  0
   -3.5003  -44.7379    6.0858 C   0  0  0  0  0  0  0  0  0  0  0  0
   -2.1611  -44.9745    6.4195 C   0  0  0  0  0  0  0  0  0  0  0  0
    1.2913  -50.9433    6.7123 N   0  0  0  0  0  0  0  0  0  0  0  0
   -8.6255  -44.3363    5.6579 C   0  0  0  0  0  0  0  0  0  0  0  0
   -7.5720  -43.6313    5.0628 C   0  0  0  0  0  0  0  0  0  0  0  0
   -6.2570  -43.7913    5.5445 C   0  0  0  0  0  0  0  0  0  0  0  0
   -5.9622  -44.6926    6.6073 C   0  0  0  0  0  0  0  0  0  0  0  0
   -7.0522  -45.3703    7.2070 C   0  0  0  0  0  0  0  0  0  0  0  0
   -8.3685  -45.1909    6.7365 C   0  0  0  0  0  0  0  0  0  0  0  0
    4.7655  -48.5857    7.2163 H   0  0  0  0  0  0  0  0  0  0  0  0
   -0.9000  -52.7840    6.9911 H   0  0  0  0  0  0  0  0  0  0  0  0
   -3.1826  -52.1953    6.1832 H   0  0  0  0  0  0  0  0  0  0  0  0
   -3.5538  -50.0601    4.9804 H   0  0  0  0  0  0  0  0  0  0  0  0
   -1.6782  -48.4836    4.6134 H   0  0  0  0  0  0  0  0  0  0  0  0
    1.3785  -49.4445    4.7280 H   0  0  0  0  0  0  0  0  0  0  0  0
    2.3815  -47.3727    5.2972 H   0  0  0  0  0  0  0  0  0  0  0  0
    1.1050  -47.6207    4.0580 H   0  0  0  0  0  0  0  0  0  0  0  0
    0.9308  -45.5838    5.6826 H   0  0  0  0  0  0  0  0  0  0  0  0
   -0.5340  -46.5600    5.3245 H   0  0  0  0  0  0  0  0  0  0  0  0
   -0.4380  -47.6253    7.5014 H   0  0  0  0  0  0  0  0  0  0  0  0
    1.1524  -46.8697    7.8567 H   0  0  0  0  0  0  0  0  0  0  0  0
   -2.5800  -46.1138    9.5957 H   0  0  0  0  0  0  0  0  0  0  0  0
   -4.9503  -45.5840    9.0455 H   0  0  0  0  0  0  0  0  0  0  0  0
   -3.7393  -44.3871    5.0927 H   0  0  0  0  0  0  0  0  0  0  0  0
   -1.3896  -44.7804    5.6891 H   0  0  0  0  0  0  0  0  0  0  0  0
   -9.6329  -44.2211    5.2860 H   0  0  0  0  0  0  0  0  0  0  0  0
   -7.7670  -42.9654    4.2352 H   0  0  0  0  0  0  0  0  0  0  0  0
   -5.4569  -43.2190    5.0988 H   0  0  0  0  0  0  0  0  0  0  0  0
   -6.8714  -46.0354    8.0385 H   0  0  0  0  0  0  0  0  0  0  0  0
   -9.1842  -45.7161    7.2111 H   0  0  0  0  0  0  0  0  0  0  0  0
  1  2  2  0  0  0  0
  2  3  1  0  0  0  0
  2  4  1  0  0  0  0
  4 11  1  0  0  0  0
  4 22  2  0  0  0  0
  5  6  2  0  0  0  0
  5 10  1  0  0  0  0
  5 22  1  0  0  0  0
  6  7  1  0  0  0  0
  7  8  2  0  0  0  0
  8  9  1  0  0  0  0
  9 10  2  0  0  0  0
 10 11  1  0  0  0  0
 11 12  1  0  0  0  0
 12 13  1  0  0  0  0
 13 14  1  0  0  0  0
 14 15  1  0  0  0  0
 15 16  1  0  0  0  0
 16 17  2  0  0  0  0
 16 21  1  0  0  0  0
 17 18  1  0  0  0  0
 18 19  2  0  0  0  0
 19 20  1  0  0  0  0
 19 26  1  0  0  0  0
 20 21  2  0  0  0  0
 23 24  2  0  0  0  0
 23 28  1  0  0  0  0
 24 25  1  0  0  0  0
 25 26  2  0  0  0  0
 26 27  1  0  0  0  0
 27 28  2  0  0  0  0
  3 29  1  0  0  0  0
  6 30  1  0  0  0  0
  7 31  1  0  0  0  0
  8 32  1  0  0  0  0
  9 33  1  0  0  0  0
 11 34  1  0  0  0  0
 12 35  1  0  0  0  0
 12 36  1  0  0  0  0
 13 37  1  0  0  0  0
 13 38  1  0  0  0  0
 14 39  1  0  0  0  0
 14 40  1  0  0  0  0
 17 41  1  0  0  0  0
 18 42  1  0  0  0  0
 20 43  1  0  0  0  0
 21 44  1  0  0  0  0
 23 45  1  0  0  0  0
 24 46  1  0  0  0  0
 25 47  1  0  0  0  0
 27 48  1  0  0  0  0
 28 49  1  0  0  0  0
M  END
> <r_user_dG.exp>
-7.02680029426089

$$$$
39
  -OEChem-05162309453D
 Structure written by MMmdl.
 49 52  0     1  0  0  0  0  0999 V2000
    3.8280  -50.6234    7.4838 O   0  0  0  0  0  0  0  0  0  0  0  0
    3.3210  -49.6151    6.9243 C   0  0  0  0  0  0  0  0  0  0  0  0
    3.9054  -48.5248    6.8176 O   0  0  0  0  0  0  0  0  0  0  0  0
    1.9393  -49.7707    6.3969 C   0  0  3  0  0  0  0  0  0  0  0  0
   -0.0209  -50.9269    6.3143 C   0  0  0  0  0  0  0  0  0  0  0  0
   -1.0754  -51.8407    6.4953 C   0  0  0  0  0  0  0  0  0  0  0  0
   -2.3593  -51.5145    6.0248 C   0  0  0  0  0  0  0  0  0  0  0  0
   -2.5689  -50.3046    5.3500 C   0  0  0  0  0  0  0  0  0  0  0  0
   -1.5021  -49.4040    5.1503 C   0  0  0  0  0  0  0  0  0  0  0  0
   -0.2163  -49.6827    5.6368 C   0  0  0  0  0  0  0  0  0  0  0  0
    1.0640  -48.9793    5.6739 C   0  0  0  0  0  0  0  0  0  0  0  0
    1.3228  -47.6243    5.1362 C   0  0  0  0  0  0  0  0  0  0  0  0
    0.4437  -46.5592    5.8286 C   0  0  0  0  0  0  0  0  0  0  0  0
    0.1816  -46.7275    7.3595 C   0  0  0  0  0  0  0  0  0  0  0  0
   -0.4798  -45.6317    7.9896 O   0  0  0  0  0  0  0  0  0  0  0  0
   -1.8076  -45.4558    7.6772 C   0  0  0  0  0  0  0  0  0  0  0  0
   -2.8302  -45.7085    8.6264 C   0  0  0  0  0  0  0  0  0  0  0  0
   -4.1835  -45.4281    8.3011 C   0  0  0  0  0  0  0  0  0  0  0  0
   -4.5494  -44.9452    7.0122 C   0  0  0  0  0  0  0  0  0  0  0  0
   -3.5003  -44.7379    6.0858 C   0  0  0  0  0  0  0  0  0  0  0  0
   -2.1611  -44.9745    6.4195 C   0  0  0  0  0  0  0  0  0  0  0  0
    1.2913  -50.9433    6.7123 N   0  0  0  0  0  0  0  0  0  0  0  0
   -8.6255  -44.3363    5.6579 C   0  0  0  0  0  0  0  0  0  0  0  0
   -7.5720  -43.6313    5.0628 C   0  0  0  0  0  0  0  0  0  0  0  0
   -6.2570  -43.7913    5.5445 C   0  0  0  0  0  0  0  0  0  0  0  0
   -5.9622  -44.6926    6.6073 C   0  0  0  0  0  0  0  0  0  0  0  0
   -7.0522  -45.3703    7.2070 C   0  0  0  0  0  0  0  0  0  0  0  0
   -8.3685  -45.1909    6.7365 C   0  0  0  0  0  0  0  0  0  0  0  0
    4.7655  -48.5857    7.2163 H   0  0  0  0  0  0  0  0  0  0  0  0
    2.3277  -50.2162    5.4692 H   0  0  0  0  0  0  0  0  0  0  0  0
   -0.9000  -52.7840    6.9911 H   0  0  0  0  0  0  0  0  0  0  0  0
   -3.1826  -52.1953    6.1832 H   0  0  0  0  0  0  0  0  0  0  0  0
   -3.5538  -50.0601    4.9804 H   0  0  0  0  0  0  0  0  0  0  0  0
   -1.6782  -48.4836    4.6134 H   0  0  0  0  0  0  0  0  0  0  0  0
    2.3815  -47.3727    5.2972 H   0  0  0  0  0  0  0  0  0  0  0  0
    1.1050  -47.6207    4.0580 H   0  0  0  0  0  0  0  0  0  0  0  0
    0.9308  -45.5838    5.6826 H   0  0  0  0  0  0  0  0  0  0  0  0
   -0.5340  -46.5600    5.3245 H   0  0  0  0  0  0  0  0  0  0  0  0
   -0.4380  -47.6253    7.5014 H   0  0  0  0  0  0  0  0  0  0  0  0
    1.1524  -46.8697    7.8567 H   0  0  0  0  0  0  0  0  0  0  0  0
   -2.5800  -46.1138    9.5957 H   0  0  0  0  0  0  0  0  0  0  0  0
   -4.9503  -45.5840    9.0455 H   0  0  0  0  0  0  0  0  0  0  0  0
   -3.7393  -44.3871    5.0927 H   0  0  0  0  0  0  0  0  0  0  0  0
   -1.3896  -44.7804    5.6891 H   0  0  0  0  0  0  0  0  0  0  0  0
   -9.6329  -44.2211    5.2860 H   0  0  0  0  0  0  0  0  0  0  0  0
   -7.7670  -42.9654    4.2352 H   0  0  0  0  0  0  0  0  0  0  0  0
   -5.4569  -43.2190    5.0988 H   0  0  0  0  0  0  0  0  0  0  0  0
   -6.8714  -46.0354    8.0385 H   0  0  0  0  0  0  0  0  0  0  0  0
   -9.1842  -45.7161    7.2111 H   0  0  0  0  0  0  0  0  0  0  0  0
  1  2  2  0  0  0  0
  2  3  1  0  0  0  0
  2  4  1  0  0  0  0
  4 11  1  0  0  0  0
  4 22  1  0  0  0  0
  5  6  1  0  0  0  0
  5 10  1  0  0  0  0
  5 22  2  0  0  0  0
  6  7  2  0  0  0  0
  7  8  1  0  0  0  0
  8  9  2  0  0  0  0
  9 10  1  0  0  0  0
 10 11  2  0  0  0  0
 11 12  1  0  0  0  0
 12 13  1  0  0  0  0
 13 14  1  0  0  0  0
 14 15  1  0  0  0  0
 15 16  1  0  0  0  0
 16 17  2  0  0  0  0
 16 21  1  0  0  0  0
 17 18  1  0  0  0  0
 18 19  2  0  0  0  0
 19 20  1  0  0  0  0
 19 26  1  0  0  0  0
 20 21  2  0  0  0  0
 23 24  2  0  0  0  0
 23 28  1  0  0  0  0
 24 25  1  0  0  0  0
 25 26  2  0  0  0  0
 26 27  1  0  0  0  0
 27 28  2  0  0  0  0
  3 29  1  0  0  0  0
  4 30  1  0  0  0  0
  6 31  1  0  0  0  0
  7 32  1  0  0  0  0
  8 33  1  0  0  0  0
  9 34  1  0  0  0  0
 12 35  1  0  0  0  0
 12 36  1  0  0  0  0
 13 37  1  0  0  0  0
 13 38  1  0  0  0  0
 14 39  1  0  0  0  0
 14 40  1  0  0  0  0
 17 41  1  0  0  0  0
 18 42  1  0  0  0  0
 20 43  1  0  0  0  0
 21 44  1  0  0  0  0
 23 45  1  0  0  0  0
 24 46  1  0  0  0  0
 25 47  1  0  0  0  0
 27 48  1  0  0  0  0
 28 49  1  0  0  0  0
M  END
> <r_user_dG.exp>
-7.02680029426089

$$$$
39
  -OEChem-05162309453D
 Structure written by MMmdl.
 49 52  0     1  0  0  0  0  0999 V2000
    3.8280  -50.6234    7.4838 O   0  0  0  0  0  0  0  0  0  0  0  0
    3.3210  -49.6151    6.9243 C   0  0  0  0  0  0  0  0  0  0  0  0
    3.9054  -48.5248    6.8176 O   0  0  0  0  0  0  0  0  0  0  0  0
    1.9393  -49.7707    6.3969 C   0  0  0  0  0  0  0  0  0  0  0  0
   -0.0209  -50.9269    6.3143 C   0  0  0  0  0  0  0  0  0  0  0  0
   -1.0754  -51.8407    6.4953 C   0  0  0  0  0  0  0  0  0  0  0  0
   -2.3593  -51.5145    6.0248 C   0  0  0  0  0  0  0  0  0  0  0  0
   -2.5689  -50.3046    5.3500 C   0  0  0  0  0  0  0  0  0  0  0  0
   -1.5021  -49.4040    5.1503 C   0  0  0  0  0  0  0  0  0  0  0  0
   -0.2163  -49.6827    5.6368 C   0  0  3  0  0  0  0  0  0  0  0  0
    1.0640  -48.9793    5.6739 C   0  0  0  0  0  0  0  0  0  0  0  0
    1.3228  -47.6243    5.1362 C   0  0  0  0  0  0  0  0  0  0  0  0
    0.4437  -46.5592    5.8286 C   0  0  0  0  0  0  0  0  0  0  0  0
    0.1816  -46.7275    7.3595 C   0  0  0  0  0  0  0  0  0  0  0  0
   -0.4798  -45.6317    7.9896 O   0  0  0  0  0  0  0  0  0  0  0  0
   -1.8076  -45.4558    7.6772 C   0  0  0  0  0  0  0  0  0  0  0  0
   -2.8302  -45.7085    8.6264 C   0  0  0  0  0  0  0  0  0  0  0  0
   -4.1835  -45.4281    8.3011 C   0  0  0  0  0  0  0  0  0  0  0  0
   -4.5494  -44.9452    7.0122 C   0  0  0  0  0  0  0  0  0  0  0  0
   -3.5003  -44.7379    6.0858 C   0  0  0  0  0  0  0  0  0  0  0  0
   -2.1611  -44.9745    6.4195 C   0  0  0  0  0  0  0  0  0  0  0  0
    1.2913  -50.9433    6.7123 N   0  0  0  0  0  0  0  0  0  0  0  0
   -8.6255  -44.3363    5.6579 C   0  0  0  0  0  0  0  0  0  0  0  0
   -7.5720  -43.6313    5.0628 C   0  0  0  0  0  0  0  0  0  0  0  0
   -6.2570  -43.7913    5.5445 C   0  0  0  0  0  0  0  0  0  0  0  0
   -5.9622  -44.6926    6.6073 C   0  0  0  0  0  0  0  0  0  0  0  0
   -7.0522  -45.3703    7.2070 C   0  0  0  0  0  0  0  0  0  0  0  0
   -8.3685  -45.1909    6.7365 C   0  0  0  0  0  0  0  0  0  0  0  0
    4.7655  -48.5857    7.2163 H   0  0  0  0  0  0  0  0  0  0  0  0
   -0.9000  -52.7840    6.9911 H   0  0  0  0  0  0  0  0  0  0  0  0
   -3.1826  -52.1953    6.1832 H   0  0  0  0  0  0  0  0  0  0  0  0
   -3.5538  -50.0601    4.9804 H   0  0  0  0  0  0  0  0  0  0  0  0
   -1.6782  -48.4836    4.6134 H   0  0  0  0  0  0  0  0  0  0  0  0
    0.0564  -50.1496    4.6789 H   0  0  0  0  0  0  0  0  0  0  0  0
    2.3815  -47.3727    5.2972 H   0  0  0  0  0  0  0  0  0  0  0  0
    1.1050  -47.6207    4.0580 H   0  0  0  0  0  0  0  0  0  0  0  0
    0.9308  -45.5838    5.6826 H   0  0  0  0  0  0  0  0  0  0  0  0
   -0.5340  -46.5600    5.3245 H   0  0  0  0  0  0  0  0  0  0  0  0
   -0.4380  -47.6253    7.5014 H   0  0  0  0  0  0  0  0  0  0  0  0
    1.1524  -46.8697    7.8567 H   0  0  0  0  0  0  0  0  0  0  0  0
   -2.5800  -46.1138    9.5957 H   0  0  0  0  0  0  0  0  0  0  0  0
   -4.9503  -45.5840    9.0455 H   0  0  0  0  0  0  0  0  0  0  0  0
   -3.7393  -44.3871    5.0927 H   0  0  0  0  0  0  0  0  0  0  0  0
   -1.3896  -44.7804    5.6891 H   0  0  0  0  0  0  0  0  0  0  0  0
   -9.6329  -44.2211    5.2860 H   0  0  0  0  0  0  0  0  0  0  0  0
   -7.7670  -42.9654    4.2352 H   0  0  0  0  0  0  0  0  0  0  0  0
   -5.4569  -43.2190    5.0988 H   0  0  0  0  0  0  0  0  0  0  0  0
   -6.8714  -46.0354    8.0385 H   0  0  0  0  0  0  0  0  0  0  0  0
   -9.1842  -45.7161    7.2111 H   0  0  0  0  0  0  0  0  0  0  0  0
  1  2  2  0  0  0  0
  2  3  1  0  0  0  0
  2  4  1  0  0  0  0
  4 11  2  0  0  0  0
  4 22  1  0  0  0  0
  5  6  1  0  0  0  0
  5 10  1  0  0  0  0
  5 22  2  0  0  0  0
  6  7  2  0  0  0  0
  7  8  1  0  0  0  0
  8  9  2  0  0  0  0
  9 10  1  0  0  0  0
 10 11  1  0  0  0  0
 11 12  1  0  0  0  0
 12 13  1  0  0  0  0
 13 14  1  0  0  0  0
 14 15  1  0  0  0  0
 15 16  1  0  0  0  0
 16 17  2  0  0  0  0
 16 21  1  0  0  0  0
 17 18  1  0  0  0  0
 18 19  2  0  0  0  0
 19 20  1  0  0  0  0
 19 26  1  0  0  0  0
 20 21  2  0  0  0  0
 23 24  2  0  0  0  0
 23 28  1  0  0  0  0
 24 25  1  0  0  0  0
 25 26  2  0  0  0  0
 26 27  1  0  0  0  0
 27 28  2  0  0  0  0
  3 29  1  0  0  0  0
  6 30  1  0  0  0  0
  7 31  1  0  0  0  0
  8 32  1  0  0  0  0
  9 33  1  0  0  0  0
 10 34  1  0  0  0  0
 12 35  1  0  0  0  0
 12 36  1  0  0  0  0
 13 37  1  0  0  0  0
 13 38  1  0  0  0  0
 14 39  1  0  0  0  0
 14 40  1  0  0  0  0
 17 41  1  0  0  0  0
 18 42  1  0  0  0  0
 20 43  1  0  0  0  0
 21 44  1  0  0  0  0
 23 45  1  0  0  0  0
 24 46  1  0  0  0  0
 25 47  1  0  0  0  0
 27 48  1  0  0  0  0
 28 49  1  0  0  0  0
M  END
> <r_user_dG.exp>
-7.02680029426089

$$$$
39
  -OEChem-05162309453D
 Structure written by MMmdl.
 49 52  0     1  0  0  0  0  0999 V2000
    3.8280  -50.6234    7.4838 O   0  0  0  0  0  0  0  0  0  0  0  0
    3.3210  -49.6151    6.9243 C   0  0  0  0  0  0  0  0  0  0  0  0
    3.9054  -48.5248    6.8176 O   0  0  0  0  0  0  0  0  0  0  0  0
    1.9393  -49.7707    6.3969 C   0  0  0  0  0  0  0  0  0  0  0  0
   -0.0209  -50.9269    6.3143 C   0  0  3  0  0  0  0  0  0  0  0  0
   -1.0754  -51.8407    6.4953 C   0  0  0  0  0  0  0  0  0  0  0  0
   -2.3593  -51.5145    6.0248 C   0  0  0  0  0  0  0  0  0  0  0  0
   -2.5689  -50.3046    5.3500 C   0  0  0  0  0  0  0  0  0  0  0  0
   -1.5021  -49.4040    5.1503 C   0  0  0  0  0  0  0  0  0  0  0  0
   -0.2163  -49.6827    5.6368 C   0  0  0  0  0  0  0  0  0  0  0  0
    1.0640  -48.9793    5.6739 C   0  0  0  0  0  0  0  0  0  0  0  0
    1.3228  -47.6243    5.1362 C   0  0  0  0  0  0  0  0  0  0  0  0
    0.4437  -46.5592    5.8286 C   0  0  0  0  0  0  0  0  0  0  0  0
    0.1816  -46.7275    7.3595 C   0  0  0  0  0  0  0  0  0  0  0  0
   -0.4798  -45.6317    7.9896 O   0  0  0  0  0  0  0  0  0  0  0  0
   -1.8076  -45.4558    7.6772 C   0  0  0  0  0  0  0  0  0  0  0  0
   -2.8302  -45.7085    8.6264 C   0  0  0  0  0  0  0  0  0  0  0  0
   -4.1835  -45.4281    8.3011 C   0  0  0  0  0  0  0  0  0  0  0  0
   -4.5494  -44.9452    7.0122 C   0  0  0  0  0  0  0  0  0  0  0  0
   -3.5003  -44.7379    6.0858 C   0  0  0  0  0  0  0  0  0  0  0  0
   -2.1611  -44.9745    6.4195 C   0  0  0  0  0  0  0  0  0  0  0  0
    1.2913  -50.9433    6.7123 N   0  0  0  0  0  0  0  0  0  0  0  0
   -8.6255  -44.3363    5.6579 C   0  0  0  0  0  0  0  0  0  0  0  0
   -7.5720  -43.6313    5.0628 C   0  0  0  0  0  0  0  0  0  0  0  0
   -6.2570  -43.7913    5.5445 C   0  0  0  0  0  0  0  0  0  0  0  0
   -5.9622  -44.6926    6.6073 C   0  0  0  0  0  0  0  0  0  0  0  0
   -7.0522  -45.3703    7.2070 C   0  0  0  0  0  0  0  0  0  0  0  0
   -8.3685  -45.1909    6.7365 C   0  0  0  0  0  0  0  0  0  0  0  0
    4.7655  -48.5857    7.2163 H   0  0  0  0  0  0  0  0  0  0  0  0
    0.2502  -51.4124    5.3652 H   0  0  0  0  0  0  0  0  0  0  0  0
   -0.9000  -52.7840    6.9911 H   0  0  0  0  0  0  0  0  0  0  0  0
   -3.1826  -52.1953    6.1832 H   0  0  0  0  0  0  0  0  0  0  0  0
   -3.5538  -50.0601    4.9804 H   0  0  0  0  0  0  0  0  0  0  0  0
   -1.6782  -48.4836    4.6134 H   0  0  0  0  0  0  0  0  0  0  0  0
    2.3815  -47.3727    5.2972 H   0  0  0  0  0  0  0  0  0  0  0  0
    1.1050  -47.6207    4.0580 H   0  0  0  0  0  0  0  0  0  0  0  0
    0.9308  -45.5838    5.6826 H   0  0  0  0  0  0  0  0  0  0  0  0
   -0.5340  -46.5600    5.3245 H   0  0  0  0  0  0  0  0  0  0  0  0
   -0.4380  -47.6253    7.5014 H   0  0  0  0  0  0  0  0  0  0  0  0
    1.1524  -46.8697    7.8567 H   0  0  0  0  0  0  0  0  0  0  0  0
   -2.5800  -46.1138    9.5957 H   0  0  0  0  0  0  0  0  0  0  0  0
   -4.9503  -45.5840    9.0455 H   0  0  0  0  0  0  0  0  0  0  0  0
   -3.7393  -44.3871    5.0927 H   0  0  0  0  0  0  0  0  0  0  0  0
   -1.3896  -44.7804    5.6891 H   0  0  0  0  0  0  0  0  0  0  0  0
   -9.6329  -44.2211    5.2860 H   0  0  0  0  0  0  0  0  0  0  0  0
   -7.7670  -42.9654    4.2352 H   0  0  0  0  0  0  0  0  0  0  0  0
   -5.4569  -43.2190    5.0988 H   0  0  0  0  0  0  0  0  0  0  0  0
   -6.8714  -46.0354    8.0385 H   0  0  0  0  0  0  0  0  0  0  0  0
   -9.1842  -45.7161    7.2111 H   0  0  0  0  0  0  0  0  0  0  0  0
  1  2  2  0  0  0  0
  2  3  1  0  0  0  0
  2  4  1  0  0  0  0
  4 11  1  0  0  0  0
  4 22  2  0  0  0  0
  5  6  1  0  0  0  0
  5 10  1  0  0  0  0
  5 22  1  0  0  0  0
  6  7  2  0  0  0  0
  7  8  1  0  0  0  0
  8  9  2  0  0  0  0
  9 10  1  0  0  0  0
 10 11  2  0  0  0  0
 11 12  1  0  0  0  0
 12 13  1  0  0  0  0
 13 14  1  0  0  0  0
 14 15  1  0  0  0  0
 15 16  1  0  0  0  0
 16 17  2  0  0  0  0
 16 21  1  0  0  0  0
 17 18  1  0  0  0  0
 18 19  2  0  0  0  0
 19 20  1  0  0  0  0
 19 26  1  0  0  0  0
 20 21  2  0  0  0  0
 23 24  2  0  0  0  0
 23 28  1  0  0  0  0
 24 25  1  0  0  0  0
 25 26  2  0  0  0  0
 26 27  1  0  0  0  0
 27 28  2  0  0  0  0
  3 29  1  0  0  0  0
  5 30  1  0  0  0  0
  6 31  1  0  0  0  0
  7 32  1  0  0  0  0
  8 33  1  0  0  0  0
  9 34  1  0  0  0  0
 12 35  1  0  0  0  0
 12 36  1  0  0  0  0
 13 37  1  0  0  0  0
 13 38  1  0  0  0  0
 14 39  1  0  0  0  0
 14 40  1  0  0  0  0
 17 41  1  0  0  0  0
 18 42  1  0  0  0  0
 20 43  1  0  0  0  0
 21 44  1  0  0  0  0
 23 45  1  0  0  0  0
 24 46  1  0  0  0  0
 25 47  1  0  0  0  0
 27 48  1  0  0  0  0
 28 49  1  0  0  0  0
M  END
> <r_user_dG.exp>
-7.02680029426089

$$$$
39
  -OEChem-05162309453D
 Structure written by MMmdl.
 49 52  0     0  0  0  0  0  0999 V2000
    3.8280  -50.6234    7.4838 O   0  0  0  0  0  0  0  0  0  0  0  0
    3.3210  -49.6151    6.9243 C   0  0  0  0  0  0  0  0  0  0  0  0
    3.9054  -48.5248    6.8176 O   0  0  0  0  0  0  0  0  0  0  0  0
    1.9393  -49.7707    6.3969 C   0  0  0  0  0  0  0  0  0  0  0  0
   -0.0209  -50.9269    6.3143 C   0  0  0  0  0  0  0  0  0  0  0  0
   -1.0754  -51.8407    6.4953 C   0  0  0  0  0  0  0  0  0  0  0  0
   -2.3593  -51.5145    6.0248 C   0  0  0  0  0  0  0  0  0  0  0  0
   -2.5689  -50.3046    5.3500 C   0  0  0  0  0  0  0  0  0  0  0  0
   -1.5021  -49.4040    5.1503 C   0  0  0  0  0  0  0  0  0  0  0  0
   -0.2163  -49.6827    5.6368 C   0  0  0  0  0  0  0  0  0  0  0  0
    1.0640  -48.9793    5.6739 C   0  0  0  0  0  0  0  0  0  0  0  0
    1.3228  -47.6243    5.1362 C   0  0  0  0  0  0  0  0  0  0  0  0
    0.4437  -46.5592    5.8286 C   0  0  0  0  0  0  0  0  0  0  0  0
    0.1816  -46.7275    7.3595 C   0  0  0  0  0  0  0  0  0  0  0  0
   -0.4798  -45.6317    7.9896 O   0  0  0  0  0  0  0  0  0  0  0  0
   -1.8076  -45.4558    7.6772 C   0  0  0  0  0  0  0  0  0  0  0  0
   -2.8302  -45.7085    8.6264 C   0  0  0  0  0  0  0  0  0  0  0  0
   -4.1835  -45.4281    8.3011 C   0  0  0  0  0  0  0  0  0  0  0  0
   -4.5494  -44.9452    7.0122 C   0  0  0  0  0  0  0  0  0  0  0  0
   -3.5003  -44.7379    6.0858 C   0  0  0  0  0  0  0  0  0  0  0  0
   -2.1611  -44.9745    6.4195 C   0  0  0  0  0  0  0  0  0  0  0  0
    1.2913  -50.9433    6.7123 N   0  0  0  0  0  0  0  0  0  0  0  0
   -8.6255  -44.3363    5.6579 C   0  0  0  0  0  0  0  0  0  0  0  0
   -7.5720  -43.6313    5.0628 C   0  0  0  0  0  0  0  0  0  0  0  0
   -6.2570  -43.7913    5.5445 C   0  0  0  0  0  0  0  0  0  0  0  0
   -5.9622  -44.6926    6.6073 C   0  0  0  0  0  0  0  0  0  0  0  0
   -7.0522  -45.3703    7.2070 C   0  0  0  0  0  0  0  0  0  0  0  0
   -8.3685  -45.1909    6.7365 C   0  0  0  0  0  0  0  0  0  0  0  0
    4.7655  -48.5857    7.2163 H   0  0  0  0  0  0  0  0  0  0  0  0
   -0.9000  -52.7840    6.9911 H   0  0  0  0  0  0  0  0  0  0  0  0
   -3.1826  -52.1953    6.1832 H   0  0  0  0  0  0  0  0  0  0  0  0
   -2.9551  -50.5623    4.3528 H   0  0  0  0  0  0  0  0  0  0  0  0
   -3.3410  -49.7593    5.9125 H   0  0  0  0  0  0  0  0  0  0  0  0
   -1.6782  -48.4836    4.6134 H   0  0  0  0  0  0  0  0  0  0  0  0
    2.3815  -47.3727    5.2972 H   0  0  0  0  0  0  0  0  0  0  0  0
    1.1050  -47.6207    4.0580 H   0  0  0  0  0  0  0  0  0  0  0  0
    0.9308  -45.5838    5.6826 H   0  0  0  0  0  0  0  0  0  0  0  0
   -0.5340  -46.5600    5.3245 H   0  0  0  0  0  0  0  0  0  0  0  0
   -0.4380  -47.6253    7.5014 H   0  0  0  0  0  0  0  0  0  0  0  0
    1.1524  -46.8697    7.8567 H   0  0  0  0  0  0  0  0  0  0  0  0
   -2.5800  -46.1138    9.5957 H   0  0  0  0  0  0  0  0  0  0  0  0
   -4.9503  -45.5840    9.0455 H   0  0  0  0  0  0  0  0  0  0  0  0
   -3.7393  -44.3871    5.0927 H   0  0  0  0  0  0  0  0  0  0  0  0
   -1.3896  -44.7804    5.6891 H   0  0  0  0  0  0  0  0  0  0  0  0
   -9.6329  -44.2211    5.2860 H   0  0  0  0  0  0  0  0  0  0  0  0
   -7.7670  -42.9654    4.2352 H   0  0  0  0  0  0  0  0  0  0  0  0
   -5.4569  -43.2190    5.0988 H   0  0  0  0  0  0  0  0  0  0  0  0
   -6.8714  -46.0354    8.0385 H   0  0  0  0  0  0  0  0  0  0  0  0
   -9.1842  -45.7161    7.2111 H   0  0  0  0  0  0  0  0  0  0  0  0
  1  2  2  0  0  0  0
  2  3  1  0  0  0  0
  2  4  1  0  0  0  0
  4 11  2  0  0  0  0
  4 22  1  0  0  0  0
  5  6  1  0  0  0  0
  5 10  1  0  0  0  0
  5 22  2  0  0  0  0
  6  7  2  0  0  0  0
  7  8  1  0  0  0  0
  8  9  1  0  0  0  0
  9 10  2  0  0  0  0
 10 11  1  0  0  0  0
 11 12  1  0  0  0  0
 12 13  1  0  0  0  0
 13 14  1  0  0  0  0
 14 15  1  0  0  0  0
 15 16  1  0  0  0  0
 16 17  2  0  0  0  0
 16 21  1  0  0  0  0
 17 18  1  0  0  0  0
 18 19  2  0  0  0  0
 19 20  1  0  0  0  0
 19 26  1  0  0  0  0
 20 21  2  0  0  0  0
 23 24  2  0  0  0  0
 23 28  1  0  0  0  0
 24 25  1  0  0  0  0
 25 26  2  0  0  0  0
 26 27  1  0  0  0  0
 27 28  2  0  0  0  0
  3 29  1  0  0  0  0
  6 30  1  0  0  0  0
  7 31  1  0  0  0  0
  8 32  1  0  0  0  0
  8 33  1  0  0  0  0
  9 34  1  0  0  0  0
 12 35  1  0  0  0  0
 12 36  1  0  0  0  0
 13 37  1  0  0  0  0
 13 38  1  0  0  0  0
 14 39  1  0  0  0  0
 14 40  1  0  0  0  0
 17 41  1  0  0  0  0
 18 42  1  0  0  0  0
 20 43  1  0  0  0  0
 21 44  1  0  0  0  0
 23 45  1  0  0  0  0
 24 46  1  0  0  0  0
 25 47  1  0  0  0  0
 27 48  1  0  0  0  0
 28 49  1  0  0  0  0
M  END
> <r_user_dG.exp>
-7.02680029426089

$$$$
39
  -OEChem-05162309453D
 Structure written by MMmdl.
 49 52  0     0  0  0  0  0  0999 V2000
    3.8280  -50.6234    7.4838 O   0  0  0  0  0  0  0  0  0  0  0  0
    3.3210  -49.6151    6.9243 C   0  0  0  0  0  0  0  0  0  0  0  0
    3.9054  -48.5248    6.8176 O   0  0  0  0  0  0  0  0  0  0  0  0
    1.9393  -49.7707    6.3969 C   0  0  0  0  0  0  0  0  0  0  0  0
   -0.0209  -50.9269    6.3143 C   0  0  0  0  0  0  0  0  0  0  0  0
   -1.0754  -51.8407    6.4953 C   0  0  0  0  0  0  0  0  0  0  0  0
   -2.3593  -51.5145    6.0248 C   0  0  0  0  0  0  0  0  0  0  0  0
   -2.5689  -50.3046    5.3500 C   0  0  0  0  0  0  0  0  0  0  0  0
   -1.5021  -49.4040    5.1503 C   0  0  0  0  0  0  0  0  0  0  0  0
   -0.2163  -49.6827    5.6368 C   0  0  0  0  0  0  0  0  0  0  0  0
    1.0640  -48.9793    5.6739 C   0  0  0  0  0  0  0  0  0  0  0  0
    1.3228  -47.6243    5.1362 C   0  0  0  0  0  0  0  0  0  0  0  0
    0.4437  -46.5592    5.8286 C   0  0  0  0  0  0  0  0  0  0  0  0
    0.1816  -46.7275    7.3595 C   0  0  0  0  0  0  0  0  0  0  0  0
   -0.4798  -45.6317    7.9896 O   0  0  0  0  0  0  0  0  0  0  0  0
   -1.8076  -45.4558    7.6772 C   0  0  0  0  0  0  0  0  0  0  0  0
   -2.8302  -45.7085    8.6264 C   0  0  0  0  0  0  0  0  0  0  0  0
   -4.1835  -45.4281    8.3011 C   0  0  0  0  0  0  0  0  0  0  0  0
   -4.5494  -44.9452    7.0122 C   0  0  0  0  0  0  0  0  0  0  0  0
   -3.5003  -44.7379    6.0858 C   0  0  0  0  0  0  0  0  0  0  0  0
   -2.1611  -44.9745    6.4195 C   0  0  0  0  0  0  0  0  0  0  0  0
    1.2913  -50.9433    6.7123 N   0  0  0  0  0  0  0  0  0  0  0  0
   -8.6255  -44.3363    5.6579 C   0  0  0  0  0  0  0  0  0  0  0  0
   -7.5720  -43.6313    5.0628 C   0  0  0  0  0  0  0  0  0  0  0  0
   -6.2570  -43.7913    5.5445 C   0  0  0  0  0  0  0  0  0  0  0  0
   -5.9622  -44.6926    6.6073 C   0  0  0  0  0  0  0  0  0  0  0  0
   -7.0522  -45.3703    7.2070 C   0  0  0  0  0  0  0  0  0  0  0  0
   -8.3685  -45.1909    6.7365 C   0  0  0  0  0  0  0  0  0  0  0  0
    4.7655  -48.5857    7.2163 H   0  0  0  0  0  0  0  0  0  0  0  0
   -0.9000  -52.7840    6.9911 H   0  0  0  0  0  0  0  0  0  0  0  0
   -2.6598  -52.3186    5.3370 H   0  0  0  0  0  0  0  0  0  0  0  0
   -3.0271  -51.5111    6.8989 H   0  0  0  0  0  0  0  0  0  0  0  0
   -3.5538  -50.0601    4.9804 H   0  0  0  0  0  0  0  0  0  0  0  0
   -1.6782  -48.4836    4.6134 H   0  0  0  0  0  0  0  0  0  0  0  0
    2.3815  -47.3727    5.2972 H   0  0  0  0  0  0  0  0  0  0  0  0
    1.1050  -47.6207    4.0580 H   0  0  0  0  0  0  0  0  0  0  0  0
    0.9308  -45.5838    5.6826 H   0  0  0  0  0  0  0  0  0  0  0  0
   -0.5340  -46.5600    5.3245 H   0  0  0  0  0  0  0  0  0  0  0  0
   -0.4380  -47.6253    7.5014 H   0  0  0  0  0  0  0  0  0  0  0  0
    1.1524  -46.8697    7.8567 H   0  0  0  0  0  0  0  0  0  0  0  0
   -2.5800  -46.1138    9.5957 H   0  0  0  0  0  0  0  0  0  0  0  0
   -4.9503  -45.5840    9.0455 H   0  0  0  0  0  0  0  0  0  0  0  0
   -3.7393  -44.3871    5.0927 H   0  0  0  0  0  0  0  0  0  0  0  0
   -1.3896  -44.7804    5.6891 H   0  0  0  0  0  0  0  0  0  0  0  0
   -9.6329  -44.2211    5.2860 H   0  0  0  0  0  0  0  0  0  0  0  0
   -7.7670  -42.9654    4.2352 H   0  0  0  0  0  0  0  0  0  0  0  0
   -5.4569  -43.2190    5.0988 H   0  0  0  0  0  0  0  0  0  0  0  0
   -6.8714  -46.0354    8.0385 H   0  0  0  0  0  0  0  0  0  0  0  0
   -9.1842  -45.7161    7.2111 H   0  0  0  0  0  0  0  0  0  0  0  0
  1  2  2  0  0  0  0
  2  3  1  0  0  0  0
  2  4  1  0  0  0  0
  4 11  1  0  0  0  0
  4 22  2  0  0  0  0
  5  6  2  0  0  0  0
  5 10  1  0  0  0  0
  5 22  1  0  0  0  0
  6  7  1  0  0  0  0
  7  8  1  0  0  0  0
  8  9  2  0  0  0  0
  9 10  1  0  0  0  0
 10 11  2  0  0  0  0
 11 12  1  0  0  0  0
 12 13  1  0  0  0  0
 13 14  1  0  0  0  0
 14 15  1  0  0  0  0
 15 16  1  0  0  0  0
 16 17  2  0  0  0  0
 16 21  1  0  0  0  0
 17 18  1  0  0  0  0
 18 19  2  0  0  0  0
 19 20  1  0  0  0  0
 19 26  1  0  0  0  0
 20 21  2  0  0  0  0
 23 24  2  0  0  0  0
 23 28  1  0  0  0  0
 24 25  1  0  0  0  0
 25 26  2  0  0  0  0
 26 27  1  0  0  0  0
 27 28  2  0  0  0  0
  3 29  1  0  0  0  0
  6 30  1  0  0  0  0
  7 31  1  0  0  0  0
  7 32  1  0  0  0  0
  8 33  1  0  0  0  0
  9 34  1  0  0  0  0
 12 35  1  0  0  0  0
 12 36  1  0  0  0  0
 13 37  1  0  0  0  0
 13 38  1  0  0  0  0
 14 39  1  0  0  0  0
 14 40  1  0  0  0  0
 17 41  1  0  0  0  0
 18 42  1  0  0  0  0
 20 43  1  0  0  0  0
 21 44  1  0  0  0  0
 23 45  1  0  0  0  0
 24 46  1  0  0  0  0
 25 47  1  0  0  0  0
 27 48  1  0  0  0  0
 28 49  1  0  0  0  0
M  END
> <r_user_dG.exp>
-7.02680029426089

$$$$
39
  -OEChem-05162309453D
 Structure written by MMmdl.
 49 52  0     0  0  0  0  0  0999 V2000
    3.8280  -50.6234    7.4838 O   0  0  0  0  0  0  0  0  0  0  0  0
    3.3210  -49.6151    6.9243 C   0  0  0  0  0  0  0  0  0  0  0  0
    3.9054  -48.5248    6.8176 O   0  0  0  0  0  0  0  0  0  0  0  0
    1.9393  -49.7707    6.3969 C   0  0  0  0  0  0  0  0  0  0  0  0
   -0.0209  -50.9269    6.3143 C   0  0  0  0  0  0  0  0  0  0  0  0
   -1.0754  -51.8407    6.4953 C   0  0  0  0  0  0  0  0  0  0  0  0
   -2.3593  -51.5145    6.0248 C   0  0  0  0  0  0  0  0  0  0  0  0
   -2.5689  -50.3046    5.3500 C   0  0  0  0  0  0  0  0  0  0  0  0
   -1.5021  -49.4040    5.1503 C   0  0  0  0  0  0  0  0  0  0  0  0
   -0.2163  -49.6827    5.6368 C   0  0  0  0  0  0  0  0  0  0  0  0
    1.0640  -48.9793    5.6739 C   0  0  0  0  0  0  0  0  0  0  0  0
    1.3228  -47.6243    5.1362 C   0  0  0  0  0  0  0  0  0  0  0  0
    0.4437  -46.5592    5.8286 C   0  0  0  0  0  0  0  0  0  0  0  0
    0.1816  -46.7275    7.3595 C   0  0  0  0  0  0  0  0  0  0  0  0
   -0.4798  -45.6317    7.9896 O   0  0  0  0  0  0  0  0  0  0  0  0
   -1.8076  -45.4558    7.6772 C   0  0  0  0  0  0  0  0  0  0  0  0
   -2.8302  -45.7085    8.6264 C   0  0  0  0  0  0  0  0  0  0  0  0
   -4.1835  -45.4281    8.3011 C   0  0  0  0  0  0  0  0  0  0  0  0
   -4.5494  -44.9452    7.0122 C   0  0  0  0  0  0  0  0  0  0  0  0
   -3.5003  -44.7379    6.0858 C   0  0  0  0  0  0  0  0  0  0  0  0
   -2.1611  -44.9745    6.4195 C   0  0  0  0  0  0  0  0  0  0  0  0
    1.2913  -50.9433    6.7123 N   0  0  0  0  0  0  0  0  0  0  0  0
   -8.6255  -44.3363    5.6579 C   0  0  0  0  0  0  0  0  0  0  0  0
   -7.5720  -43.6313    5.0628 C   0  0  0  0  0  0  0  0  0  0  0  0
   -6.2570  -43.7913    5.5445 C   0  0  0  0  0  0  0  0  0  0  0  0
   -5.9622  -44.6926    6.6073 C   0  0  0  0  0  0  0  0  0  0  0  0
   -7.0522  -45.3703    7.2070 C   0  0  0  0  0  0  0  0  0  0  0  0
   -8.3685  -45.1909    6.7365 C   0  0  0  0  0  0  0  0  0  0  0  0
    4.7655  -48.5857    7.2163 H   0  0  0  0  0  0  0  0  0  0  0  0
   -0.7790  -52.7751    5.9962 H   0  0  0  0  0  0  0  0  0  0  0  0
   -1.1656  -52.0157    7.5775 H   0  0  0  0  0  0  0  0  0  0  0  0
   -3.1826  -52.1953    6.1832 H   0  0  0  0  0  0  0  0  0  0  0  0
   -3.5538  -50.0601    4.9804 H   0  0  0  0  0  0  0  0  0  0  0  0
   -1.6782  -48.4836    4.6134 H   0  0  0  0  0  0  0  0  0  0  0  0
    2.3815  -47.3727    5.2972 H   0  0  0  0  0  0  0  0  0  0  0  0
    1.1050  -47.6207    4.0580 H   0  0  0  0  0  0  0  0  0  0  0  0
    0.9308  -45.5838    5.6826 H   0  0  0  0  0  0  0  0  0  0  0  0
   -0.5340  -46.5600    5.3245 H   0  0  0  0  0  0  0  0  0  0  0  0
   -0.4380  -47.6253    7.5014 H   0  0  0  0  0  0  0  0  0  0  0  0
    1.1524  -46.8697    7.8567 H   0  0  0  0  0  0  0  0  0  0  0  0
   -2.5800  -46.1138    9.5957 H   0  0  0  0  0  0  0  0  0  0  0  0
   -4.9503  -45.5840    9.0455 H   0  0  0  0  0  0  0  0  0  0  0  0
   -3.7393  -44.3871    5.0927 H   0  0  0  0  0  0  0  0  0  0  0  0
   -1.3896  -44.7804    5.6891 H   0  0  0  0  0  0  0  0  0  0  0  0
   -9.6329  -44.2211    5.2860 H   0  0  0  0  0  0  0  0  0  0  0  0
   -7.7670  -42.9654    4.2352 H   0  0  0  0  0  0  0  0  0  0  0  0
   -5.4569  -43.2190    5.0988 H   0  0  0  0  0  0  0  0  0  0  0  0
   -6.8714  -46.0354    8.0385 H   0  0  0  0  0  0  0  0  0  0  0  0
   -9.1842  -45.7161    7.2111 H   0  0  0  0  0  0  0  0  0  0  0  0
  1  2  2  0  0  0  0
  2  3  1  0  0  0  0
  2  4  1  0  0  0  0
  4 11  2  0  0  0  0
  4 22  1  0  0  0  0
  5  6  1  0  0  0  0
  5 10  1  0  0  0  0
  5 22  2  0  0  0  0
  6  7  1  0  0  0  0
  7  8  2  0  0  0  0
  8  9  1  0  0  0  0
  9 10  2  0  0  0  0
 10 11  1  0  0  0  0
 11 12  1  0  0  0  0
 12 13  1  0  0  0  0
 13 14  1  0  0  0  0
 14 15  1  0  0  0  0
 15 16  1  0  0  0  0
 16 17  2  0  0  0  0
 16 21  1  0  0  0  0
 17 18  1  0  0  0  0
 18 19  2  0  0  0  0
 19 20  1  0  0  0  0
 19 26  1  0  0  0  0
 20 21  2  0  0  0  0
 23 24  2  0  0  0  0
 23 28  1  0  0  0  0
 24 25  1  0  0  0  0
 25 26  2  0  0  0  0
 26 27  1  0  0  0  0
 27 28  2  0  0  0  0
  3 29  1  0  0  0  0
  6 30  1  0  0  0  0
  6 31  1  0  0  0  0
  7 32  1  0  0  0  0
  8 33  1  0  0  0  0
  9 34  1  0  0  0  0
 12 35  1  0  0  0  0
 12 36  1  0  0  0  0
 13 37  1  0  0  0  0
 13 38  1  0  0  0  0
 14 39  1  0  0  0  0
 14 40  1  0  0  0  0
 17 41  1  0  0  0  0
 18 42  1  0  0  0  0
 20 43  1  0  0  0  0
 21 44  1  0  0  0  0
 23 45  1  0  0  0  0
 24 46  1  0  0  0  0
 25 47  1  0  0  0  0
 27 48  1  0  0  0  0
 28 49  1  0  0  0  0
M  END
> <r_user_dG.exp>
-7.02680029426089

$$$$
39
  -OEChem-05162309453D
 Structure written by MMmdl.
 49 52  0     0  0  0  0  0  0999 V2000
    3.8280  -50.6234    7.4838 O   0  0  0  0  0  0  0  0  0  0  0  0
    3.3210  -49.6151    6.9243 C   0  0  0  0  0  0  0  0  0  0  0  0
    3.9054  -48.5248    6.8176 O   0  0  0  0  0  0  0  0  0  0  0  0
    1.9393  -49.7707    6.3969 C   0  0  0  0  0  0  0  0  0  0  0  0
   -0.0209  -50.9269    6.3143 C   0  0  0  0  0  0  0  0  0  0  0  0
   -1.0754  -51.8407    6.4953 C   0  0  0  0  0  0  0  0  0  0  0  0
   -2.3593  -51.5145    6.0248 C   0  0  0  0  0  0  0  0  0  0  0  0
   -2.5689  -50.3046    5.3500 C   0  0  0  0  0  0  0  0  0  0  0  0
   -1.5021  -49.4040    5.1503 C   0  0  0  0  0  0  0  0  0  0  0  0
   -0.2163  -49.6827    5.6368 C   0  0  0  0  0  0  0  0  0  0  0  0
    1.0640  -48.9793    5.6739 C   0  0  0  0  0  0  0  0  0  0  0  0
    1.3228  -47.6243    5.1362 C   0  0  0  0  0  0  0  0  0  0  0  0
    0.4437  -46.5592    5.8286 C   0  0  0  0  0  0  0  0  0  0  0  0
    0.1816  -46.7275    7.3595 C   0  0  0  0  0  0  0  0  0  0  0  0
   -0.4798  -45.6317    7.9896 O   0  0  0  0  0  0  0  0  0  0  0  0
   -1.8076  -45.4558    7.6772 C   0  0  0  0  0  0  0  0  0  0  0  0
   -2.8302  -45.7085    8.6264 C   0  0  0  0  0  0  0  0  0  0  0  0
   -4.1835  -45.4281    8.3011 C   0  0  0  0  0  0  0  0  0  0  0  0
   -4.5494  -44.9452    7.0122 C   0  0  0  0  0  0  0  0  0  0  0  0
   -3.5003  -44.7379    6.0858 C   0  0  0  0  0  0  0  0  0  0  0  0
   -2.1611  -44.9745    6.4195 C   0  0  0  0  0  0  0  0  0  0  0  0
    1.2913  -50.9433    6.7123 N   0  0  0  0  0  0  0  0  0  0  0  0
   -8.6255  -44.3363    5.6579 C   0  0  0  0  0  0  0  0  0  0  0  0
   -7.5720  -43.6313    5.0628 C   0  0  0  0  0  0  0  0  0  0  0  0
   -6.2570  -43.7913    5.5445 C   0  0  0  0  0  0  0  0  0  0  0  0
   -5.9622  -44.6926    6.6073 C   0  0  0  0  0  0  0  0  0  0  0  0
   -7.0522  -45.3703    7.2070 C   0  0  0  0  0  0  0  0  0  0  0  0
   -8.3685  -45.1909    6.7365 C   0  0  0  0  0  0  0  0  0  0  0  0
    4.7655  -48.5857    7.2163 H   0  0  0  0  0  0  0  0  0  0  0  0
   -0.9000  -52.7840    6.9911 H   0  0  0  0  0  0  0  0  0  0  0  0
   -3.1826  -52.1953    6.1832 H   0  0  0  0  0  0  0  0  0  0  0  0
   -3.5538  -50.0601    4.9804 H   0  0  0  0  0  0  0  0  0  0  0  0
   -1.4028  -49.2743    4.0625 H   0  0  0  0  0  0  0  0  0  0  0  0
   -1.8086  -48.4512    5.6067 H   0  0  0  0  0  0  0  0  0  0  0  0
    2.3815  -47.3727    5.2972 H   0  0  0  0  0  0  0  0  0  0  0  0
    1.1050  -47.6207    4.0580 H   0  0  0  0  0  0  0  0  0  0  0  0
    0.9308  -45.5838    5.6826 H   0  0  0  0  0  0  0  0  0  0  0  0
   -0.5340  -46.5600    5.3245 H   0  0  0  0  0  0  0  0  0  0  0  0
   -0.4380  -47.6253    7.5014 H   0  0  0  0  0  0  0  0  0  0  0  0
    1.1524  -46.8697    7.8567 H   0  0  0  0  0  0  0  0  0  0  0  0
   -2.5800  -46.1138    9.5957 H   0  0  0  0  0  0  0  0  0  0  0  0
   -4.9503  -45.5840    9.0455 H   0  0  0  0  0  0  0  0  0  0  0  0
   -3.7393  -44.3871    5.0927 H   0  0  0  0  0  0  0  0  0  0  0  0
   -1.3896  -44.7804    5.6891 H   0  0  0  0  0  0  0  0  0  0  0  0
   -9.6329  -44.2211    5.2860 H   0  0  0  0  0  0  0  0  0  0  0  0
   -7.7670  -42.9654    4.2352 H   0  0  0  0  0  0  0  0  0  0  0  0
   -5.4569  -43.2190    5.0988 H   0  0  0  0  0  0  0  0  0  0  0  0
   -6.8714  -46.0354    8.0385 H   0  0  0  0  0  0  0  0  0  0  0  0
   -9.1842  -45.7161    7.2111 H   0  0  0  0  0  0  0  0  0  0  0  0
  1  2  2  0  0  0  0
  2  3  1  0  0  0  0
  2  4  1  0  0  0  0
  4 11  1  0  0  0  0
  4 22  2  0  0  0  0
  5  6  2  0  0  0  0
  5 10  1  0  0  0  0
  5 22  1  0  0  0  0
  6  7  1  0  0  0  0
  7  8  2  0  0  0  0
  8  9  1  0  0  0  0
  9 10  1  0  0  0  0
 10 11  2  0  0  0  0
 11 12  1  0  0  0  0
 12 13  1  0  0  0  0
 13 14  1  0  0  0  0
 14 15  1  0  0  0  0
 15 16  1  0  0  0  0
 16 17  2  0  0  0  0
 16 21  1  0  0  0  0
 17 18  1  0  0  0  0
 18 19  2  0  0  0  0
 19 20  1  0  0  0  0
 19 26  1  0  0  0  0
 20 21  2  0  0  0  0
 23 24  2  0  0  0  0
 23 28  1  0  0  0  0
 24 25  1  0  0  0  0
 25 26  2  0  0  0  0
 26 27  1  0  0  0  0
 27 28  2  0  0  0  0
  3 29  1  0  0  0  0
  6 30  1  0  0  0  0
  7 31  1  0  0  0  0
  8 32  1  0  0  0  0
  9 33  1  0  0  0  0
  9 34  1  0  0  0  0
 12 35  1  0  0  0  0
 12 36  1  0  0  0  0
 13 37  1  0  0  0  0
 13 38  1  0  0  0  0
 14 39  1  0  0  0  0
 14 40  1  0  0  0  0
 17 41  1  0  0  0  0
 18 42  1  0  0  0  0
 20 43  1  0  0  0  0
 21 44  1  0  0  0  0
 23 45  1  0  0  0  0
 24 46  1  0  0  0  0
 25 47  1  0  0  0  0
 27 48  1  0  0  0  0
 28 49  1  0  0  0  0
M  END
> <r_user_dG.exp>
-7.02680029426089

$$$$
39
  -OEChem-05162309453D
 Structure written by MMmdl.
 49 52  0     0  0  0  0  0  0999 V2000
    3.8280  -50.6234    7.4838 O   0  0  0  0  0  0  0  0  0  0  0  0
    3.3210  -49.6151    6.9243 C   0  0  0  0  0  0  0  0  0  0  0  0
    3.9054  -48.5248    6.8176 O   0  0  0  0  0  0  0  0  0  0  0  0
    1.9393  -49.7707    6.3969 C   0  0  0  0  0  0  0  0  0  0  0  0
   -0.0209  -50.9269    6.3143 C   0  0  0  0  0  0  0  0  0  0  0  0
   -1.0754  -51.8407    6.4953 C   0  0  0  0  0  0  0  0  0  0  0  0
   -2.3593  -51.5145    6.0248 C   0  0  0  0  0  0  0  0  0  0  0  0
   -2.5689  -50.3046    5.3500 C   0  0  0  0  0  0  0  0  0  0  0  0
   -1.5021  -49.4040    5.1503 C   0  0  0  0  0  0  0  0  0  0  0  0
   -0.2163  -49.6827    5.6368 C   0  0  0  0  0  0  0  0  0  0  0  0
    1.0640  -48.9793    5.6739 C   0  0  0  0  0  0  0  0  0  0  0  0
    1.3228  -47.6243    5.1362 C   0  0  0  0  0  0  0  0  0  0  0  0
    0.4437  -46.5592    5.8286 C   0  0  0  0  0  0  0  0  0  0  0  0
    0.1816  -46.7275    7.3595 C   0  0  0  0  0  0  0  0  0  0  0  0
   -0.4798  -45.6317    7.9896 O   0  0  0  0  0  0  0  0  0  0  0  0
   -1.8076  -45.4558    7.6772 C   0  0  0  0  0  0  0  0  0  0  0  0
   -2.8302  -45.7085    8.6264 C   0  0  0  0  0  0  0  0  0  0  0  0
   -4.1835  -45.4281    8.3011 C   0  0  0  0  0  0  0  0  0  0  0  0
   -4.5494  -44.9452    7.0122 C   0  0  0  0  0  0  0  0  0  0  0  0
   -3.5003  -44.7379    6.0858 C   0  0  0  0  0  0  0  0  0  0  0  0
   -2.1611  -44.9745    6.4195 C   0  0  0  0  0  0  0  0  0  0  0  0
    1.2913  -50.9433    6.7123 N   0  0  0  0  0  0  0  0  0  0  0  0
   -8.6255  -44.3363    5.6579 C   0  0  0  0  0  0  0  0  0  0  0  0
   -7.5720  -43.6313    5.0628 C   0  0  0  0  0  0  0  0  0  0  0  0
   -6.2570  -43.7913    5.5445 C   0  0  0  0  0  0  0  0  0  0  0  0
   -5.9622  -44.6926    6.6073 C   0  0  0  0  0  0  0  0  0  0  0  0
   -7.0522  -45.3703    7.2070 C   0  0  0  0  0  0  0  0  0  0  0  0
   -8.3685  -45.1909    6.7365 C   0  0  0  0  0  0  0  0  0  0  0  0
    3.2119  -51.3460    7.4539 H   0  0  0  0  0  0  0  0  0  0  0  0
    3.3438  -47.9070    6.3644 H   0  0  0  0  0  0  0  0  0  0  0  0
   -0.9000  -52.7840    6.9911 H   0  0  0  0  0  0  0  0  0  0  0  0
   -3.1826  -52.1953    6.1832 H   0  0  0  0  0  0  0  0  0  0  0  0
   -3.5538  -50.0601    4.9804 H   0  0  0  0  0  0  0  0  0  0  0  0
   -1.6782  -48.4836    4.6134 H   0  0  0  0  0  0  0  0  0  0  0  0
    2.3815  -47.3727    5.2972 H   0  0  0  0  0  0  0  0  0  0  0  0
    1.1050  -47.6207    4.0580 H   0  0  0  0  0  0  0  0  0  0  0  0
    0.9308  -45.5838    5.6826 H   0  0  0  0  0  0  0  0  0  0  0  0
   -0.5340  -46.5600    5.3245 H   0  0  0  0  0  0  0  0  0  0  0  0
   -0.4380  -47.6253    7.5014 H   0  0  0  0  0  0  0  0  0  0  0  0
    1.1524  -46.8697    7.8567 H   0  0  0  0  0  0  0  0  0  0  0  0
   -2.5800  -46.1138    9.5957 H   0  0  0  0  0  0  0  0  0  0  0  0
   -4.9503  -45.5840    9.0455 H   0  0  0  0  0  0  0  0  0  0  0  0
   -3.7393  -44.3871    5.0927 H   0  0  0  0  0  0  0  0  0  0  0  0
   -1.3896  -44.7804    5.6891 H   0  0  0  0  0  0  0  0  0  0  0  0
   -9.6329  -44.2211    5.2860 H   0  0  0  0  0  0  0  0  0  0  0  0
   -7.7670  -42.9654    4.2352 H   0  0  0  0  0  0  0  0  0  0  0  0
   -5.4569  -43.2190    5.0988 H   0  0  0  0  0  0  0  0  0  0  0  0
   -6.8714  -46.0354    8.0385 H   0  0  0  0  0  0  0  0  0  0  0  0
   -9.1842  -45.7161    7.2111 H   0  0  0  0  0  0  0  0  0  0  0  0
  1  2  1  0  0  0  0
  2  3  1  0  0  0  0
  2  4  2  0  0  0  0
  4 11  1  0  0  0  0
  4 22  1  0  0  0  0
  5  6  1  0  0  0  0
  5 10  1  0  0  0  0
  5 22  2  0  0  0  0
  6  7  2  0  0  0  0
  7  8  1  0  0  0  0
  8  9  2  0  0  0  0
  9 10  1  0  0  0  0
 10 11  2  0  0  0  0
 11 12  1  0  0  0  0
 12 13  1  0  0  0  0
 13 14  1  0  0  0  0
 14 15  1  0  0  0  0
 15 16  1  0  0  0  0
 16 17  2  0  0  0  0
 16 21  1  0  0  0  0
 17 18  1  0  0  0  0
 18 19  2  0  0  0  0
 19 20  1  0  0  0  0
 19 26  1  0  0  0  0
 20 21  2  0  0  0  0
 23 24  2  0  0  0  0
 23 28  1  0  0  0  0
 24 25  1  0  0  0  0
 25 26  2  0  0  0  0
 26 27  1  0  0  0  0
 27 28  2  0  0  0  0
  1 29  1  0  0  0  0
  3 30  1  0  0  0  0
  6 31  1  0  0  0  0
  7 32  1  0  0  0  0
  8 33  1  0  0  0  0
  9 34  1  0  0  0  0
 12 35  1  0  0  0  0
 12 36  1  0  0  0  0
 13 37  1  0  0  0  0
 13 38  1  0  0  0  0
 14 39  1  0  0  0  0
 14 40  1  0  0  0  0
 17 41  1  0  0  0  0
 18 42  1  0  0  0  0
 20 43  1  0  0  0  0
 21 44  1  0  0  0  0
 23 45  1  0  0  0  0
 24 46  1  0  0  0  0
 25 47  1  0  0  0  0
 27 48  1  0  0  0  0
 28 49  1  0  0  0  0
M  END
> <r_user_dG.exp>
-7.02680029426089

$$$$
