52
  -OEChem-05192314073D
 Structure written by MMmdl.
 42 44  0     0  0  0  0  0  0999 V2000
    3.6519  -50.1731    7.5910 O   0  0  0  0  0  0  0  0  0  0  0  0
    3.0433  -49.1959    7.1015 C   0  0  0  0  0  0  0  0  0  0  0  0
    3.5655  -48.0687    6.9870 O   0  0  0  0  0  0  0  0  0  0  0  0
    1.6483  -49.3725    6.6570 C   0  0  0  0  0  0  0  0  0  0  0  0
   -0.3320  -50.4839    6.5819 C   0  0  0  0  0  0  0  0  0  0  0  0
   -1.4113  -51.3646    6.7488 C   0  0  0  0  0  0  0  0  0  0  0  0
   -2.6844  -50.9778    6.2976 C   0  0  0  0  0  0  0  0  0  0  0  0
   -2.8676  -49.7470    5.6359 C   0  0  0  0  0  0  0  0  0  0  0  0
   -1.7777  -48.8758    5.4639 C   0  0  0  0  0  0  0  0  0  0  0  0
   -0.4901  -49.2182    5.9483 C   0  0  0  0  0  0  0  0  0  0  0  0
    0.7777  -48.5424    5.9916 C   0  0  0  0  0  0  0  0  0  0  0  0
    1.0475  -47.1566    5.5153 C   0  0  0  0  0  0  0  0  0  0  0  0
    1.0218  -46.1839    6.7045 C   0  0  0  0  0  0  0  0  0  0  0  0
    0.4477  -44.8206    6.3095 C   0  0  0  0  0  0  0  0  0  0  0  0
   -0.8651  -44.8822    5.7760 O   0  0  0  0  0  0  0  0  0  0  0  0
   -1.9430  -45.1814    6.5878 C   0  0  0  0  0  0  0  0  0  0  0  0
   -3.2160  -45.1421    5.9801 C   0  0  0  0  0  0  0  0  0  0  0  0
   -4.3936  -45.3534    6.7336 C   0  0  0  0  0  0  0  0  0  0  0  0
   -5.7495  -45.1797    6.0705 C   0  0  0  0  0  0  0  0  0  0  0  0
   -4.2869  -45.6872    8.1025 C   0  0  0  0  0  0  0  0  0  0  0  0
   -5.6898  -46.0040    9.0603 Cl  0  0  0  0  0  0  0  0  0  0  0  0
   -3.0245  -45.7414    8.7159 C   0  0  0  0  0  0  0  0  0  0  0  0
   -1.8648  -45.4531    7.9752 C   0  0  0  0  0  0  0  0  0  0  0  0
   -4.0424  -51.9828    6.5895 Cl  0  0  0  0  0  0  0  0  0  0  0  0
    0.9956  -50.5546    6.9557 N   0  0  0  0  0  0  0  0  0  0  0  0
    4.4544  -48.0956    7.3211 H   0  0  0  0  0  0  0  0  0  0  0  0
   -1.2655  -52.3266    7.2176 H   0  0  0  0  0  0  0  0  0  0  0  0
   -3.8432  -49.4737    5.2618 H   0  0  0  0  0  0  0  0  0  0  0  0
   -1.9232  -47.9337    4.9563 H   0  0  0  0  0  0  0  0  0  0  0  0
    2.0369  -47.1213    5.0358 H   0  0  0  0  0  0  0  0  0  0  0  0
    0.2765  -46.8640    4.7873 H   0  0  0  0  0  0  0  0  0  0  0  0
    0.4003  -46.6143    7.5036 H   0  0  0  0  0  0  0  0  0  0  0  0
    2.0487  -46.0448    7.0734 H   0  0  0  0  0  0  0  0  0  0  0  0
    0.4283  -44.1807    7.2040 H   0  0  0  0  0  0  0  0  0  0  0  0
    1.1084  -44.3728    5.5526 H   0  0  0  0  0  0  0  0  0  0  0  0
   -3.2921  -44.9472    4.9206 H   0  0  0  0  0  0  0  0  0  0  0  0
   -6.0790  -46.1417    5.6510 H   0  0  0  0  0  0  0  0  0  0  0  0
   -6.4809  -44.8353    6.8165 H   0  0  0  0  0  0  0  0  0  0  0  0
   -5.6705  -44.4360    5.2639 H   0  0  0  0  0  0  0  0  0  0  0  0
   -2.9444  -46.0054    9.7601 H   0  0  0  0  0  0  0  0  0  0  0  0
   -0.9046  -45.4387    8.4694 H   0  0  0  0  0  0  0  0  0  0  0  0
    1.4253  -51.3501    7.3830 H   0  0  0  0  0  0  0  0  0  0  0  0
  1  2  2  0  0  0  0
  2  3  1  0  0  0  0
  2  4  1  0  0  0  0
  4 11  2  0  0  0  0
  4 25  1  0  0  0  0
  5  6  2  0  0  0  0
  5 10  1  0  0  0  0
  5 25  1  0  0  0  0
  6  7  1  0  0  0  0
  7  8  2  0  0  0  0
  7 24  1  0  0  0  0
  8  9  1  0  0  0  0
  9 10  2  0  0  0  0
 10 11  1  0  0  0  0
 11 12  1  0  0  0  0
 12 13  1  0  0  0  0
 13 14  1  0  0  0  0
 14 15  1  0  0  0  0
 15 16  1  0  0  0  0
 16 17  2  0  0  0  0
 16 23  1  0  0  0  0
 17 18  1  0  0  0  0
 18 19  1  0  0  0  0
 18 20  2  0  0  0  0
 20 21  1  0  0  0  0
 20 22  1  0  0  0  0
 22 23  2  0  0  0  0
  3 26  1  0  0  0  0
  6 27  1  0  0  0  0
  8 28  1  0  0  0  0
  9 29  1  0  0  0  0
 12 30  1  0  0  0  0
 12 31  1  0  0  0  0
 13 32  1  0  0  0  0
 13 33  1  0  0  0  0
 14 34  1  0  0  0  0
 14 35  1  0  0  0  0
 17 36  1  0  0  0  0
 19 37  1  0  0  0  0
 19 38  1  0  0  0  0
 19 39  1  0  0  0  0
 22 40  1  0  0  0  0
 23 41  1  0  0  0  0
 25 42  1  0  0  0  0
M  END
> <r_user_dG.exp>
-9.22585200324184

$$$$
52
  -OEChem-05192314073D
 Structure written by MMmdl.
 42 44  0     1  0  0  0  0  0999 V2000
    3.6519  -50.1731    7.5910 O   0  0  0  0  0  0  0  0  0  0  0  0
    3.0433  -49.1959    7.1015 C   0  0  0  0  0  0  0  0  0  0  0  0
    3.5655  -48.0687    6.9870 O   0  0  0  0  0  0  0  0  0  0  0  0
    1.6483  -49.3725    6.6570 C   0  0  0  0  0  0  0  0  0  0  0  0
   -0.3320  -50.4839    6.5819 C   0  0  0  0  0  0  0  0  0  0  0  0
   -1.4113  -51.3646    6.7488 C   0  0  0  0  0  0  0  0  0  0  0  0
   -2.6844  -50.9778    6.2976 C   0  0  0  0  0  0  0  0  0  0  0  0
   -2.8676  -49.7470    5.6359 C   0  0  0  0  0  0  0  0  0  0  0  0
   -1.7777  -48.8758    5.4639 C   0  0  0  0  0  0  0  0  0  0  0  0
   -0.4901  -49.2182    5.9483 C   0  0  0  0  0  0  0  0  0  0  0  0
    0.7777  -48.5424    5.9916 C   0  0  3  0  0  0  0  0  0  0  0  0
    1.0475  -47.1566    5.5153 C   0  0  0  0  0  0  0  0  0  0  0  0
    1.0218  -46.1839    6.7045 C   0  0  0  0  0  0  0  0  0  0  0  0
    0.4477  -44.8206    6.3095 C   0  0  0  0  0  0  0  0  0  0  0  0
   -0.8651  -44.8822    5.7760 O   0  0  0  0  0  0  0  0  0  0  0  0
   -1.9430  -45.1814    6.5878 C   0  0  0  0  0  0  0  0  0  0  0  0
   -3.2160  -45.1421    5.9801 C   0  0  0  0  0  0  0  0  0  0  0  0
   -4.3936  -45.3534    6.7336 C   0  0  0  0  0  0  0  0  0  0  0  0
   -5.7495  -45.1797    6.0705 C   0  0  0  0  0  0  0  0  0  0  0  0
   -4.2869  -45.6872    8.1025 C   0  0  0  0  0  0  0  0  0  0  0  0
   -5.6898  -46.0040    9.0603 Cl  0  0  0  0  0  0  0  0  0  0  0  0
   -3.0245  -45.7414    8.7159 C   0  0  0  0  0  0  0  0  0  0  0  0
   -1.8648  -45.4531    7.9752 C   0  0  0  0  0  0  0  0  0  0  0  0
   -4.0424  -51.9828    6.5895 Cl  0  0  0  0  0  0  0  0  0  0  0  0
    0.9956  -50.5546    6.9557 N   0  0  0  0  0  0  0  0  0  0  0  0
    4.4544  -48.0956    7.3211 H   0  0  0  0  0  0  0  0  0  0  0  0
   -1.2655  -52.3266    7.2176 H   0  0  0  0  0  0  0  0  0  0  0  0
   -3.8432  -49.4737    5.2618 H   0  0  0  0  0  0  0  0  0  0  0  0
   -1.9232  -47.9337    4.9563 H   0  0  0  0  0  0  0  0  0  0  0  0
    1.0697  -48.9645    5.0187 H   0  0  0  0  0  0  0  0  0  0  0  0
    2.0369  -47.1213    5.0358 H   0  0  0  0  0  0  0  0  0  0  0  0
    0.2765  -46.8640    4.7873 H   0  0  0  0  0  0  0  0  0  0  0  0
    0.4003  -46.6143    7.5036 H   0  0  0  0  0  0  0  0  0  0  0  0
    2.0487  -46.0448    7.0734 H   0  0  0  0  0  0  0  0  0  0  0  0
    0.4283  -44.1807    7.2040 H   0  0  0  0  0  0  0  0  0  0  0  0
    1.1084  -44.3728    5.5526 H   0  0  0  0  0  0  0  0  0  0  0  0
   -3.2921  -44.9472    4.9206 H   0  0  0  0  0  0  0  0  0  0  0  0
   -6.0790  -46.1417    5.6510 H   0  0  0  0  0  0  0  0  0  0  0  0
   -6.4809  -44.8353    6.8165 H   0  0  0  0  0  0  0  0  0  0  0  0
   -5.6705  -44.4360    5.2639 H   0  0  0  0  0  0  0  0  0  0  0  0
   -2.9444  -46.0054    9.7601 H   0  0  0  0  0  0  0  0  0  0  0  0
   -0.9046  -45.4387    8.4694 H   0  0  0  0  0  0  0  0  0  0  0  0
  1  2  2  0  0  0  0
  2  3  1  0  0  0  0
  2  4  1  0  0  0  0
  4 11  1  0  0  0  0
  4 25  2  0  0  0  0
  5  6  2  0  0  0  0
  5 10  1  0  0  0  0
  5 25  1  0  0  0  0
  6  7  1  0  0  0  0
  7  8  2  0  0  0  0
  7 24  1  0  0  0  0
  8  9  1  0  0  0  0
  9 10  2  0  0  0  0
 10 11  1  0  0  0  0
 11 12  1  0  0  0  0
 12 13  1  0  0  0  0
 13 14  1  0  0  0  0
 14 15  1  0  0  0  0
 15 16  1  0  0  0  0
 16 17  2  0  0  0  0
 16 23  1  0  0  0  0
 17 18  1  0  0  0  0
 18 19  1  0  0  0  0
 18 20  2  0  0  0  0
 20 21  1  0  0  0  0
 20 22  1  0  0  0  0
 22 23  2  0  0  0  0
  3 26  1  0  0  0  0
  6 27  1  0  0  0  0
  8 28  1  0  0  0  0
  9 29  1  0  0  0  0
 11 30  1  0  0  0  0
 12 31  1  0  0  0  0
 12 32  1  0  0  0  0
 13 33  1  0  0  0  0
 13 34  1  0  0  0  0
 14 35  1  0  0  0  0
 14 36  1  0  0  0  0
 17 37  1  0  0  0  0
 19 38  1  0  0  0  0
 19 39  1  0  0  0  0
 19 40  1  0  0  0  0
 22 41  1  0  0  0  0
 23 42  1  0  0  0  0
M  END
> <r_user_dG.exp>
-9.22585200324184

$$$$
52
  -OEChem-05192314073D
 Structure written by MMmdl.
 42 44  0     1  0  0  0  0  0999 V2000
    3.6519  -50.1731    7.5910 O   0  0  0  0  0  0  0  0  0  0  0  0
    3.0433  -49.1959    7.1015 C   0  0  0  0  0  0  0  0  0  0  0  0
    3.5655  -48.0687    6.9870 O   0  0  0  0  0  0  0  0  0  0  0  0
    1.6483  -49.3725    6.6570 C   0  0  3  0  0  0  0  0  0  0  0  0
   -0.3320  -50.4839    6.5819 C   0  0  0  0  0  0  0  0  0  0  0  0
   -1.4113  -51.3646    6.7488 C   0  0  0  0  0  0  0  0  0  0  0  0
   -2.6844  -50.9778    6.2976 C   0  0  0  0  0  0  0  0  0  0  0  0
   -2.8676  -49.7470    5.6359 C   0  0  0  0  0  0  0  0  0  0  0  0
   -1.7777  -48.8758    5.4639 C   0  0  0  0  0  0  0  0  0  0  0  0
   -0.4901  -49.2182    5.9483 C   0  0  0  0  0  0  0  0  0  0  0  0
    0.7777  -48.5424    5.9916 C   0  0  0  0  0  0  0  0  0  0  0  0
    1.0475  -47.1566    5.5153 C   0  0  0  0  0  0  0  0  0  0  0  0
    1.0218  -46.1839    6.7045 C   0  0  0  0  0  0  0  0  0  0  0  0
    0.4477  -44.8206    6.3095 C   0  0  0  0  0  0  0  0  0  0  0  0
   -0.8651  -44.8822    5.7760 O   0  0  0  0  0  0  0  0  0  0  0  0
   -1.9430  -45.1814    6.5878 C   0  0  0  0  0  0  0  0  0  0  0  0
   -3.2160  -45.1421    5.9801 C   0  0  0  0  0  0  0  0  0  0  0  0
   -4.3936  -45.3534    6.7336 C   0  0  0  0  0  0  0  0  0  0  0  0
   -5.7495  -45.1797    6.0705 C   0  0  0  0  0  0  0  0  0  0  0  0
   -4.2869  -45.6872    8.1025 C   0  0  0  0  0  0  0  0  0  0  0  0
   -5.6898  -46.0040    9.0603 Cl  0  0  0  0  0  0  0  0  0  0  0  0
   -3.0245  -45.7414    8.7159 C   0  0  0  0  0  0  0  0  0  0  0  0
   -1.8648  -45.4531    7.9752 C   0  0  0  0  0  0  0  0  0  0  0  0
   -4.0424  -51.9828    6.5895 Cl  0  0  0  0  0  0  0  0  0  0  0  0
    0.9956  -50.5546    6.9557 N   0  0  0  0  0  0  0  0  0  0  0  0
    4.4544  -48.0956    7.3211 H   0  0  0  0  0  0  0  0  0  0  0  0
    1.9952  -49.7928    5.7015 H   0  0  0  0  0  0  0  0  0  0  0  0
   -1.2655  -52.3266    7.2176 H   0  0  0  0  0  0  0  0  0  0  0  0
   -3.8432  -49.4737    5.2618 H   0  0  0  0  0  0  0  0  0  0  0  0
   -1.9232  -47.9337    4.9563 H   0  0  0  0  0  0  0  0  0  0  0  0
    2.0369  -47.1213    5.0358 H   0  0  0  0  0  0  0  0  0  0  0  0
    0.2765  -46.8640    4.7873 H   0  0  0  0  0  0  0  0  0  0  0  0
    0.4003  -46.6143    7.5036 H   0  0  0  0  0  0  0  0  0  0  0  0
    2.0487  -46.0448    7.0734 H   0  0  0  0  0  0  0  0  0  0  0  0
    0.4283  -44.1807    7.2040 H   0  0  0  0  0  0  0  0  0  0  0  0
    1.1084  -44.3728    5.5526 H   0  0  0  0  0  0  0  0  0  0  0  0
   -3.2921  -44.9472    4.9206 H   0  0  0  0  0  0  0  0  0  0  0  0
   -6.0790  -46.1417    5.6510 H   0  0  0  0  0  0  0  0  0  0  0  0
   -6.4809  -44.8353    6.8165 H   0  0  0  0  0  0  0  0  0  0  0  0
   -5.6705  -44.4360    5.2639 H   0  0  0  0  0  0  0  0  0  0  0  0
   -2.9444  -46.0054    9.7601 H   0  0  0  0  0  0  0  0  0  0  0  0
   -0.9046  -45.4387    8.4694 H   0  0  0  0  0  0  0  0  0  0  0  0
  1  2  2  0  0  0  0
  2  3  1  0  0  0  0
  2  4  1  0  0  0  0
  4 11  1  0  0  0  0
  4 25  1  0  0  0  0
  5  6  1  0  0  0  0
  5 10  1  0  0  0  0
  5 25  2  0  0  0  0
  6  7  2  0  0  0  0
  7  8  1  0  0  0  0
  7 24  1  0  0  0  0
  8  9  2  0  0  0  0
  9 10  1  0  0  0  0
 10 11  2  0  0  0  0
 11 12  1  0  0  0  0
 12 13  1  0  0  0  0
 13 14  1  0  0  0  0
 14 15  1  0  0  0  0
 15 16  1  0  0  0  0
 16 17  2  0  0  0  0
 16 23  1  0  0  0  0
 17 18  1  0  0  0  0
 18 19  1  0  0  0  0
 18 20  2  0  0  0  0
 20 21  1  0  0  0  0
 20 22  1  0  0  0  0
 22 23  2  0  0  0  0
  3 26  1  0  0  0  0
  4 27  1  0  0  0  0
  6 28  1  0  0  0  0
  8 29  1  0  0  0  0
  9 30  1  0  0  0  0
 12 31  1  0  0  0  0
 12 32  1  0  0  0  0
 13 33  1  0  0  0  0
 13 34  1  0  0  0  0
 14 35  1  0  0  0  0
 14 36  1  0  0  0  0
 17 37  1  0  0  0  0
 19 38  1  0  0  0  0
 19 39  1  0  0  0  0
 19 40  1  0  0  0  0
 22 41  1  0  0  0  0
 23 42  1  0  0  0  0
M  END
> <r_user_dG.exp>
-9.22585200324184

$$$$
52
  -OEChem-05192314073D
 Structure written by MMmdl.
 42 44  0     1  0  0  0  0  0999 V2000
    3.6519  -50.1731    7.5910 O   0  0  0  0  0  0  0  0  0  0  0  0
    3.0433  -49.1959    7.1015 C   0  0  0  0  0  0  0  0  0  0  0  0
    3.5655  -48.0687    6.9870 O   0  0  0  0  0  0  0  0  0  0  0  0
    1.6483  -49.3725    6.6570 C   0  0  0  0  0  0  0  0  0  0  0  0
   -0.3320  -50.4839    6.5819 C   0  0  0  0  0  0  0  0  0  0  0  0
   -1.4113  -51.3646    6.7488 C   0  0  0  0  0  0  0  0  0  0  0  0
   -2.6844  -50.9778    6.2976 C   0  0  3  0  0  0  0  0  0  0  0  0
   -2.8676  -49.7470    5.6359 C   0  0  0  0  0  0  0  0  0  0  0  0
   -1.7777  -48.8758    5.4639 C   0  0  0  0  0  0  0  0  0  0  0  0
   -0.4901  -49.2182    5.9483 C   0  0  0  0  0  0  0  0  0  0  0  0
    0.7777  -48.5424    5.9916 C   0  0  0  0  0  0  0  0  0  0  0  0
    1.0475  -47.1566    5.5153 C   0  0  0  0  0  0  0  0  0  0  0  0
    1.0218  -46.1839    6.7045 C   0  0  0  0  0  0  0  0  0  0  0  0
    0.4477  -44.8206    6.3095 C   0  0  0  0  0  0  0  0  0  0  0  0
   -0.8651  -44.8822    5.7760 O   0  0  0  0  0  0  0  0  0  0  0  0
   -1.9430  -45.1814    6.5878 C   0  0  0  0  0  0  0  0  0  0  0  0
   -3.2160  -45.1421    5.9801 C   0  0  0  0  0  0  0  0  0  0  0  0
   -4.3936  -45.3534    6.7336 C   0  0  0  0  0  0  0  0  0  0  0  0
   -5.7495  -45.1797    6.0705 C   0  0  0  0  0  0  0  0  0  0  0  0
   -4.2869  -45.6872    8.1025 C   0  0  0  0  0  0  0  0  0  0  0  0
   -5.6898  -46.0040    9.0603 Cl  0  0  0  0  0  0  0  0  0  0  0  0
   -3.0245  -45.7414    8.7159 C   0  0  0  0  0  0  0  0  0  0  0  0
   -1.8648  -45.4531    7.9752 C   0  0  0  0  0  0  0  0  0  0  0  0
   -4.0424  -51.9828    6.5895 Cl  0  0  0  0  0  0  0  0  0  0  0  0
    0.9956  -50.5546    6.9557 N   0  0  0  0  0  0  0  0  0  0  0  0
    4.4544  -48.0956    7.3211 H   0  0  0  0  0  0  0  0  0  0  0  0
   -1.2655  -52.3266    7.2176 H   0  0  0  0  0  0  0  0  0  0  0  0
   -2.5079  -51.4809    5.3354 H   0  0  0  0  0  0  0  0  0  0  0  0
   -3.8432  -49.4737    5.2618 H   0  0  0  0  0  0  0  0  0  0  0  0
   -1.9232  -47.9337    4.9563 H   0  0  0  0  0  0  0  0  0  0  0  0
    2.0369  -47.1213    5.0358 H   0  0  0  0  0  0  0  0  0  0  0  0
    0.2765  -46.8640    4.7873 H   0  0  0  0  0  0  0  0  0  0  0  0
    0.4003  -46.6143    7.5036 H   0  0  0  0  0  0  0  0  0  0  0  0
    2.0487  -46.0448    7.0734 H   0  0  0  0  0  0  0  0  0  0  0  0
    0.4283  -44.1807    7.2040 H   0  0  0  0  0  0  0  0  0  0  0  0
    1.1084  -44.3728    5.5526 H   0  0  0  0  0  0  0  0  0  0  0  0
   -3.2921  -44.9472    4.9206 H   0  0  0  0  0  0  0  0  0  0  0  0
   -6.0790  -46.1417    5.6510 H   0  0  0  0  0  0  0  0  0  0  0  0
   -6.4809  -44.8353    6.8165 H   0  0  0  0  0  0  0  0  0  0  0  0
   -5.6705  -44.4360    5.2639 H   0  0  0  0  0  0  0  0  0  0  0  0
   -2.9444  -46.0054    9.7601 H   0  0  0  0  0  0  0  0  0  0  0  0
   -0.9046  -45.4387    8.4694 H   0  0  0  0  0  0  0  0  0  0  0  0
  1  2  2  0  0  0  0
  2  3  1  0  0  0  0
  2  4  1  0  0  0  0
  4 11  1  0  0  0  0
  4 25  2  0  0  0  0
  5  6  2  0  0  0  0
  5 10  1  0  0  0  0
  5 25  1  0  0  0  0
  6  7  1  0  0  0  0
  7  8  1  0  0  0  0
  7 24  1  0  0  0  0
  8  9  2  0  0  0  0
  9 10  1  0  0  0  0
 10 11  2  0  0  0  0
 11 12  1  0  0  0  0
 12 13  1  0  0  0  0
 13 14  1  0  0  0  0
 14 15  1  0  0  0  0
 15 16  1  0  0  0  0
 16 17  2  0  0  0  0
 16 23  1  0  0  0  0
 17 18  1  0  0  0  0
 18 19  1  0  0  0  0
 18 20  2  0  0  0  0
 20 21  1  0  0  0  0
 20 22  1  0  0  0  0
 22 23  2  0  0  0  0
  3 26  1  0  0  0  0
  6 27  1  0  0  0  0
  7 28  1  0  0  0  0
  8 29  1  0  0  0  0
  9 30  1  0  0  0  0
 12 31  1  0  0  0  0
 12 32  1  0  0  0  0
 13 33  1  0  0  0  0
 13 34  1  0  0  0  0
 14 35  1  0  0  0  0
 14 36  1  0  0  0  0
 17 37  1  0  0  0  0
 19 38  1  0  0  0  0
 19 39  1  0  0  0  0
 19 40  1  0  0  0  0
 22 41  1  0  0  0  0
 23 42  1  0  0  0  0
M  END
> <r_user_dG.exp>
-9.22585200324184

$$$$
52
  -OEChem-05192314073D
 Structure written by MMmdl.
 42 44  0     1  0  0  0  0  0999 V2000
    3.6519  -50.1731    7.5910 O   0  0  0  0  0  0  0  0  0  0  0  0
    3.0433  -49.1959    7.1015 C   0  0  0  0  0  0  0  0  0  0  0  0
    3.5655  -48.0687    6.9870 O   0  0  0  0  0  0  0  0  0  0  0  0
    1.6483  -49.3725    6.6570 C   0  0  0  0  0  0  0  0  0  0  0  0
   -0.3320  -50.4839    6.5819 C   0  0  0  0  0  0  0  0  0  0  0  0
   -1.4113  -51.3646    6.7488 C   0  0  0  0  0  0  0  0  0  0  0  0
   -2.6844  -50.9778    6.2976 C   0  0  0  0  0  0  0  0  0  0  0  0
   -2.8676  -49.7470    5.6359 C   0  0  0  0  0  0  0  0  0  0  0  0
   -1.7777  -48.8758    5.4639 C   0  0  0  0  0  0  0  0  0  0  0  0
   -0.4901  -49.2182    5.9483 C   0  0  3  0  0  0  0  0  0  0  0  0
    0.7777  -48.5424    5.9916 C   0  0  0  0  0  0  0  0  0  0  0  0
    1.0475  -47.1566    5.5153 C   0  0  0  0  0  0  0  0  0  0  0  0
    1.0218  -46.1839    6.7045 C   0  0  0  0  0  0  0  0  0  0  0  0
    0.4477  -44.8206    6.3095 C   0  0  0  0  0  0  0  0  0  0  0  0
   -0.8651  -44.8822    5.7760 O   0  0  0  0  0  0  0  0  0  0  0  0
   -1.9430  -45.1814    6.5878 C   0  0  0  0  0  0  0  0  0  0  0  0
   -3.2160  -45.1421    5.9801 C   0  0  0  0  0  0  0  0  0  0  0  0
   -4.3936  -45.3534    6.7336 C   0  0  0  0  0  0  0  0  0  0  0  0
   -5.7495  -45.1797    6.0705 C   0  0  0  0  0  0  0  0  0  0  0  0
   -4.2869  -45.6872    8.1025 C   0  0  0  0  0  0  0  0  0  0  0  0
   -5.6898  -46.0040    9.0603 Cl  0  0  0  0  0  0  0  0  0  0  0  0
   -3.0245  -45.7414    8.7159 C   0  0  0  0  0  0  0  0  0  0  0  0
   -1.8648  -45.4531    7.9752 C   0  0  0  0  0  0  0  0  0  0  0  0
   -4.0424  -51.9828    6.5895 Cl  0  0  0  0  0  0  0  0  0  0  0  0
    0.9956  -50.5546    6.9557 N   0  0  0  0  0  0  0  0  0  0  0  0
    4.4544  -48.0956    7.3211 H   0  0  0  0  0  0  0  0  0  0  0  0
   -1.2655  -52.3266    7.2176 H   0  0  0  0  0  0  0  0  0  0  0  0
   -3.8432  -49.4737    5.2618 H   0  0  0  0  0  0  0  0  0  0  0  0
   -1.9232  -47.9337    4.9563 H   0  0  0  0  0  0  0  0  0  0  0  0
   -0.2313  -49.6619    4.9756 H   0  0  0  0  0  0  0  0  0  0  0  0
    2.0369  -47.1213    5.0358 H   0  0  0  0  0  0  0  0  0  0  0  0
    0.2765  -46.8640    4.7873 H   0  0  0  0  0  0  0  0  0  0  0  0
    0.4003  -46.6143    7.5036 H   0  0  0  0  0  0  0  0  0  0  0  0
    2.0487  -46.0448    7.0734 H   0  0  0  0  0  0  0  0  0  0  0  0
    0.4283  -44.1807    7.2040 H   0  0  0  0  0  0  0  0  0  0  0  0
    1.1084  -44.3728    5.5526 H   0  0  0  0  0  0  0  0  0  0  0  0
   -3.2921  -44.9472    4.9206 H   0  0  0  0  0  0  0  0  0  0  0  0
   -6.0790  -46.1417    5.6510 H   0  0  0  0  0  0  0  0  0  0  0  0
   -6.4809  -44.8353    6.8165 H   0  0  0  0  0  0  0  0  0  0  0  0
   -5.6705  -44.4360    5.2639 H   0  0  0  0  0  0  0  0  0  0  0  0
   -2.9444  -46.0054    9.7601 H   0  0  0  0  0  0  0  0  0  0  0  0
   -0.9046  -45.4387    8.4694 H   0  0  0  0  0  0  0  0  0  0  0  0
  1  2  2  0  0  0  0
  2  3  1  0  0  0  0
  2  4  1  0  0  0  0
  4 11  2  0  0  0  0
  4 25  1  0  0  0  0
  5  6  1  0  0  0  0
  5 10  1  0  0  0  0
  5 25  2  0  0  0  0
  6  7  2  0  0  0  0
  7  8  1  0  0  0  0
  7 24  1  0  0  0  0
  8  9  2  0  0  0  0
  9 10  1  0  0  0  0
 10 11  1  0  0  0  0
 11 12  1  0  0  0  0
 12 13  1  0  0  0  0
 13 14  1  0  0  0  0
 14 15  1  0  0  0  0
 15 16  1  0  0  0  0
 16 17  2  0  0  0  0
 16 23  1  0  0  0  0
 17 18  1  0  0  0  0
 18 19  1  0  0  0  0
 18 20  2  0  0  0  0
 20 21  1  0  0  0  0
 20 22  1  0  0  0  0
 22 23  2  0  0  0  0
  3 26  1  0  0  0  0
  6 27  1  0  0  0  0
  8 28  1  0  0  0  0
  9 29  1  0  0  0  0
 10 30  1  0  0  0  0
 12 31  1  0  0  0  0
 12 32  1  0  0  0  0
 13 33  1  0  0  0  0
 13 34  1  0  0  0  0
 14 35  1  0  0  0  0
 14 36  1  0  0  0  0
 17 37  1  0  0  0  0
 19 38  1  0  0  0  0
 19 39  1  0  0  0  0
 19 40  1  0  0  0  0
 22 41  1  0  0  0  0
 23 42  1  0  0  0  0
M  END
> <r_user_dG.exp>
-9.22585200324184

$$$$
52
  -OEChem-05192314073D
 Structure written by MMmdl.
 42 44  0     1  0  0  0  0  0999 V2000
    3.6519  -50.1731    7.5910 O   0  0  0  0  0  0  0  0  0  0  0  0
    3.0433  -49.1959    7.1015 C   0  0  0  0  0  0  0  0  0  0  0  0
    3.5655  -48.0687    6.9870 O   0  0  0  0  0  0  0  0  0  0  0  0
    1.6483  -49.3725    6.6570 C   0  0  0  0  0  0  0  0  0  0  0  0
   -0.3320  -50.4839    6.5819 C   0  0  3  0  0  0  0  0  0  0  0  0
   -1.4113  -51.3646    6.7488 C   0  0  0  0  0  0  0  0  0  0  0  0
   -2.6844  -50.9778    6.2976 C   0  0  0  0  0  0  0  0  0  0  0  0
   -2.8676  -49.7470    5.6359 C   0  0  0  0  0  0  0  0  0  0  0  0
   -1.7777  -48.8758    5.4639 C   0  0  0  0  0  0  0  0  0  0  0  0
   -0.4901  -49.2182    5.9483 C   0  0  0  0  0  0  0  0  0  0  0  0
    0.7777  -48.5424    5.9916 C   0  0  0  0  0  0  0  0  0  0  0  0
    1.0475  -47.1566    5.5153 C   0  0  0  0  0  0  0  0  0  0  0  0
    1.0218  -46.1839    6.7045 C   0  0  0  0  0  0  0  0  0  0  0  0
    0.4477  -44.8206    6.3095 C   0  0  0  0  0  0  0  0  0  0  0  0
   -0.8651  -44.8822    5.7760 O   0  0  0  0  0  0  0  0  0  0  0  0
   -1.9430  -45.1814    6.5878 C   0  0  0  0  0  0  0  0  0  0  0  0
   -3.2160  -45.1421    5.9801 C   0  0  0  0  0  0  0  0  0  0  0  0
   -4.3936  -45.3534    6.7336 C   0  0  0  0  0  0  0  0  0  0  0  0
   -5.7495  -45.1797    6.0705 C   0  0  0  0  0  0  0  0  0  0  0  0
   -4.2869  -45.6872    8.1025 C   0  0  0  0  0  0  0  0  0  0  0  0
   -5.6898  -46.0040    9.0603 Cl  0  0  0  0  0  0  0  0  0  0  0  0
   -3.0245  -45.7414    8.7159 C   0  0  0  0  0  0  0  0  0  0  0  0
   -1.8648  -45.4531    7.9752 C   0  0  0  0  0  0  0  0  0  0  0  0
   -4.0424  -51.9828    6.5895 Cl  0  0  0  0  0  0  0  0  0  0  0  0
    0.9956  -50.5546    6.9557 N   0  0  0  0  0  0  0  0  0  0  0  0
    4.4544  -48.0956    7.3211 H   0  0  0  0  0  0  0  0  0  0  0  0
   -0.0927  -50.9477    5.6136 H   0  0  0  0  0  0  0  0  0  0  0  0
   -1.2655  -52.3266    7.2176 H   0  0  0  0  0  0  0  0  0  0  0  0
   -3.8432  -49.4737    5.2618 H   0  0  0  0  0  0  0  0  0  0  0  0
   -1.9232  -47.9337    4.9563 H   0  0  0  0  0  0  0  0  0  0  0  0
    2.0369  -47.1213    5.0358 H   0  0  0  0  0  0  0  0  0  0  0  0
    0.2765  -46.8640    4.7873 H   0  0  0  0  0  0  0  0  0  0  0  0
    0.4003  -46.6143    7.5036 H   0  0  0  0  0  0  0  0  0  0  0  0
    2.0487  -46.0448    7.0734 H   0  0  0  0  0  0  0  0  0  0  0  0
    0.4283  -44.1807    7.2040 H   0  0  0  0  0  0  0  0  0  0  0  0
    1.1084  -44.3728    5.5526 H   0  0  0  0  0  0  0  0  0  0  0  0
   -3.2921  -44.9472    4.9206 H   0  0  0  0  0  0  0  0  0  0  0  0
   -6.0790  -46.1417    5.6510 H   0  0  0  0  0  0  0  0  0  0  0  0
   -6.4809  -44.8353    6.8165 H   0  0  0  0  0  0  0  0  0  0  0  0
   -5.6705  -44.4360    5.2639 H   0  0  0  0  0  0  0  0  0  0  0  0
   -2.9444  -46.0054    9.7601 H   0  0  0  0  0  0  0  0  0  0  0  0
   -0.9046  -45.4387    8.4694 H   0  0  0  0  0  0  0  0  0  0  0  0
  1  2  2  0  0  0  0
  2  3  1  0  0  0  0
  2  4  1  0  0  0  0
  4 11  1  0  0  0  0
  4 25  2  0  0  0  0
  5  6  1  0  0  0  0
  5 10  1  0  0  0  0
  5 25  1  0  0  0  0
  6  7  2  0  0  0  0
  7  8  1  0  0  0  0
  7 24  1  0  0  0  0
  8  9  2  0  0  0  0
  9 10  1  0  0  0  0
 10 11  2  0  0  0  0
 11 12  1  0  0  0  0
 12 13  1  0  0  0  0
 13 14  1  0  0  0  0
 14 15  1  0  0  0  0
 15 16  1  0  0  0  0
 16 17  2  0  0  0  0
 16 23  1  0  0  0  0
 17 18  1  0  0  0  0
 18 19  1  0  0  0  0
 18 20  2  0  0  0  0
 20 21  1  0  0  0  0
 20 22  1  0  0  0  0
 22 23  2  0  0  0  0
  3 26  1  0  0  0  0
  5 27  1  0  0  0  0
  6 28  1  0  0  0  0
  8 29  1  0  0  0  0
  9 30  1  0  0  0  0
 12 31  1  0  0  0  0
 12 32  1  0  0  0  0
 13 33  1  0  0  0  0
 13 34  1  0  0  0  0
 14 35  1  0  0  0  0
 14 36  1  0  0  0  0
 17 37  1  0  0  0  0
 19 38  1  0  0  0  0
 19 39  1  0  0  0  0
 19 40  1  0  0  0  0
 22 41  1  0  0  0  0
 23 42  1  0  0  0  0
M  END
> <r_user_dG.exp>
-9.22585200324184

$$$$
52
  -OEChem-05192314073D
 Structure written by MMmdl.
 42 44  0     0  0  0  0  0  0999 V2000
    3.6519  -50.1731    7.5910 O   0  0  0  0  0  0  0  0  0  0  0  0
    3.0433  -49.1959    7.1015 C   0  0  0  0  0  0  0  0  0  0  0  0
    3.5655  -48.0687    6.9870 O   0  0  0  0  0  0  0  0  0  0  0  0
    1.6483  -49.3725    6.6570 C   0  0  0  0  0  0  0  0  0  0  0  0
   -0.3320  -50.4839    6.5819 C   0  0  0  0  0  0  0  0  0  0  0  0
   -1.4113  -51.3646    6.7488 C   0  0  0  0  0  0  0  0  0  0  0  0
   -2.6844  -50.9778    6.2976 C   0  0  0  0  0  0  0  0  0  0  0  0
   -2.8676  -49.7470    5.6359 C   0  0  0  0  0  0  0  0  0  0  0  0
   -1.7777  -48.8758    5.4639 C   0  0  0  0  0  0  0  0  0  0  0  0
   -0.4901  -49.2182    5.9483 C   0  0  0  0  0  0  0  0  0  0  0  0
    0.7777  -48.5424    5.9916 C   0  0  0  0  0  0  0  0  0  0  0  0
    1.0475  -47.1566    5.5153 C   0  0  0  0  0  0  0  0  0  0  0  0
    1.0218  -46.1839    6.7045 C   0  0  0  0  0  0  0  0  0  0  0  0
    0.4477  -44.8206    6.3095 C   0  0  0  0  0  0  0  0  0  0  0  0
   -0.8651  -44.8822    5.7760 O   0  0  0  0  0  0  0  0  0  0  0  0
   -1.9430  -45.1814    6.5878 C   0  0  0  0  0  0  0  0  0  0  0  0
   -3.2160  -45.1421    5.9801 C   0  0  0  0  0  0  0  0  0  0  0  0
   -4.3936  -45.3534    6.7336 C   0  0  0  0  0  0  0  0  0  0  0  0
   -5.7495  -45.1797    6.0705 C   0  0  0  0  0  0  0  0  0  0  0  0
   -4.2869  -45.6872    8.1025 C   0  0  0  0  0  0  0  0  0  0  0  0
   -5.6898  -46.0040    9.0603 Cl  0  0  0  0  0  0  0  0  0  0  0  0
   -3.0245  -45.7414    8.7159 C   0  0  0  0  0  0  0  0  0  0  0  0
   -1.8648  -45.4531    7.9752 C   0  0  0  0  0  0  0  0  0  0  0  0
   -4.0424  -51.9828    6.5895 Cl  0  0  0  0  0  0  0  0  0  0  0  0
    0.9956  -50.5546    6.9557 N   0  0  0  0  0  0  0  0  0  0  0  0
    4.4544  -48.0956    7.3211 H   0  0  0  0  0  0  0  0  0  0  0  0
   -1.2655  -52.3266    7.2176 H   0  0  0  0  0  0  0  0  0  0  0  0
   -3.8432  -49.4737    5.2618 H   0  0  0  0  0  0  0  0  0  0  0  0
   -1.6727  -48.7151    4.3808 H   0  0  0  0  0  0  0  0  0  0  0  0
   -2.0538  -47.9285    5.9500 H   0  0  0  0  0  0  0  0  0  0  0  0
    2.0369  -47.1213    5.0358 H   0  0  0  0  0  0  0  0  0  0  0  0
    0.2765  -46.8640    4.7873 H   0  0  0  0  0  0  0  0  0  0  0  0
    0.4003  -46.6143    7.5036 H   0  0  0  0  0  0  0  0  0  0  0  0
    2.0487  -46.0448    7.0734 H   0  0  0  0  0  0  0  0  0  0  0  0
    0.4283  -44.1807    7.2040 H   0  0  0  0  0  0  0  0  0  0  0  0
    1.1084  -44.3728    5.5526 H   0  0  0  0  0  0  0  0  0  0  0  0
   -3.2921  -44.9472    4.9206 H   0  0  0  0  0  0  0  0  0  0  0  0
   -6.0790  -46.1417    5.6510 H   0  0  0  0  0  0  0  0  0  0  0  0
   -6.4809  -44.8353    6.8165 H   0  0  0  0  0  0  0  0  0  0  0  0
   -5.6705  -44.4360    5.2639 H   0  0  0  0  0  0  0  0  0  0  0  0
   -2.9444  -46.0054    9.7601 H   0  0  0  0  0  0  0  0  0  0  0  0
   -0.9046  -45.4387    8.4694 H   0  0  0  0  0  0  0  0  0  0  0  0
  1  2  2  0  0  0  0
  2  3  1  0  0  0  0
  2  4  1  0  0  0  0
  4 11  1  0  0  0  0
  4 25  2  0  0  0  0
  5  6  2  0  0  0  0
  5 10  1  0  0  0  0
  5 25  1  0  0  0  0
  6  7  1  0  0  0  0
  7  8  2  0  0  0  0
  7 24  1  0  0  0  0
  8  9  1  0  0  0  0
  9 10  1  0  0  0  0
 10 11  2  0  0  0  0
 11 12  1  0  0  0  0
 12 13  1  0  0  0  0
 13 14  1  0  0  0  0
 14 15  1  0  0  0  0
 15 16  1  0  0  0  0
 16 17  2  0  0  0  0
 16 23  1  0  0  0  0
 17 18  1  0  0  0  0
 18 19  1  0  0  0  0
 18 20  2  0  0  0  0
 20 21  1  0  0  0  0
 20 22  1  0  0  0  0
 22 23  2  0  0  0  0
  3 26  1  0  0  0  0
  6 27  1  0  0  0  0
  8 28  1  0  0  0  0
  9 29  1  0  0  0  0
  9 30  1  0  0  0  0
 12 31  1  0  0  0  0
 12 32  1  0  0  0  0
 13 33  1  0  0  0  0
 13 34  1  0  0  0  0
 14 35  1  0  0  0  0
 14 36  1  0  0  0  0
 17 37  1  0  0  0  0
 19 38  1  0  0  0  0
 19 39  1  0  0  0  0
 19 40  1  0  0  0  0
 22 41  1  0  0  0  0
 23 42  1  0  0  0  0
M  END
> <r_user_dG.exp>
-9.22585200324184

$$$$
52
  -OEChem-05192314073D
 Structure written by MMmdl.
 42 44  0     0  0  0  0  0  0999 V2000
    3.6519  -50.1731    7.5910 O   0  0  0  0  0  0  0  0  0  0  0  0
    3.0433  -49.1959    7.1015 C   0  0  0  0  0  0  0  0  0  0  0  0
    3.5655  -48.0687    6.9870 O   0  0  0  0  0  0  0  0  0  0  0  0
    1.6483  -49.3725    6.6570 C   0  0  0  0  0  0  0  0  0  0  0  0
   -0.3320  -50.4839    6.5819 C   0  0  0  0  0  0  0  0  0  0  0  0
   -1.4113  -51.3646    6.7488 C   0  0  0  0  0  0  0  0  0  0  0  0
   -2.6844  -50.9778    6.2976 C   0  0  0  0  0  0  0  0  0  0  0  0
   -2.8676  -49.7470    5.6359 C   0  0  0  0  0  0  0  0  0  0  0  0
   -1.7777  -48.8758    5.4639 C   0  0  0  0  0  0  0  0  0  0  0  0
   -0.4901  -49.2182    5.9483 C   0  0  0  0  0  0  0  0  0  0  0  0
    0.7777  -48.5424    5.9916 C   0  0  0  0  0  0  0  0  0  0  0  0
    1.0475  -47.1566    5.5153 C   0  0  0  0  0  0  0  0  0  0  0  0
    1.0218  -46.1839    6.7045 C   0  0  0  0  0  0  0  0  0  0  0  0
    0.4477  -44.8206    6.3095 C   0  0  0  0  0  0  0  0  0  0  0  0
   -0.8651  -44.8822    5.7760 O   0  0  0  0  0  0  0  0  0  0  0  0
   -1.9430  -45.1814    6.5878 C   0  0  0  0  0  0  0  0  0  0  0  0
   -3.2160  -45.1421    5.9801 C   0  0  0  0  0  0  0  0  0  0  0  0
   -4.3936  -45.3534    6.7336 C   0  0  0  0  0  0  0  0  0  0  0  0
   -5.7495  -45.1797    6.0705 C   0  0  0  0  0  0  0  0  0  0  0  0
   -4.2869  -45.6872    8.1025 C   0  0  0  0  0  0  0  0  0  0  0  0
   -5.6898  -46.0040    9.0603 Cl  0  0  0  0  0  0  0  0  0  0  0  0
   -3.0245  -45.7414    8.7159 C   0  0  0  0  0  0  0  0  0  0  0  0
   -1.8648  -45.4531    7.9752 C   0  0  0  0  0  0  0  0  0  0  0  0
   -4.0424  -51.9828    6.5895 Cl  0  0  0  0  0  0  0  0  0  0  0  0
    0.9956  -50.5546    6.9557 N   0  0  0  0  0  0  0  0  0  0  0  0
    4.4544  -48.0956    7.3211 H   0  0  0  0  0  0  0  0  0  0  0  0
   -1.2655  -52.3266    7.2176 H   0  0  0  0  0  0  0  0  0  0  0  0
   -3.2506  -49.9797    4.6313 H   0  0  0  0  0  0  0  0  0  0  0  0
   -3.6319  -49.1929    6.2005 H   0  0  0  0  0  0  0  0  0  0  0  0
   -1.9232  -47.9337    4.9563 H   0  0  0  0  0  0  0  0  0  0  0  0
    2.0369  -47.1213    5.0358 H   0  0  0  0  0  0  0  0  0  0  0  0
    0.2765  -46.8640    4.7873 H   0  0  0  0  0  0  0  0  0  0  0  0
    0.4003  -46.6143    7.5036 H   0  0  0  0  0  0  0  0  0  0  0  0
    2.0487  -46.0448    7.0734 H   0  0  0  0  0  0  0  0  0  0  0  0
    0.4283  -44.1807    7.2040 H   0  0  0  0  0  0  0  0  0  0  0  0
    1.1084  -44.3728    5.5526 H   0  0  0  0  0  0  0  0  0  0  0  0
   -3.2921  -44.9472    4.9206 H   0  0  0  0  0  0  0  0  0  0  0  0
   -6.0790  -46.1417    5.6510 H   0  0  0  0  0  0  0  0  0  0  0  0
   -6.4809  -44.8353    6.8165 H   0  0  0  0  0  0  0  0  0  0  0  0
   -5.6705  -44.4360    5.2639 H   0  0  0  0  0  0  0  0  0  0  0  0
   -2.9444  -46.0054    9.7601 H   0  0  0  0  0  0  0  0  0  0  0  0
   -0.9046  -45.4387    8.4694 H   0  0  0  0  0  0  0  0  0  0  0  0
  1  2  2  0  0  0  0
  2  3  1  0  0  0  0
  2  4  1  0  0  0  0
  4 11  2  0  0  0  0
  4 25  1  0  0  0  0
  5  6  1  0  0  0  0
  5 10  1  0  0  0  0
  5 25  2  0  0  0  0
  6  7  2  0  0  0  0
  7  8  1  0  0  0  0
  7 24  1  0  0  0  0
  8  9  1  0  0  0  0
  9 10  2  0  0  0  0
 10 11  1  0  0  0  0
 11 12  1  0  0  0  0
 12 13  1  0  0  0  0
 13 14  1  0  0  0  0
 14 15  1  0  0  0  0
 15 16  1  0  0  0  0
 16 17  2  0  0  0  0
 16 23  1  0  0  0  0
 17 18  1  0  0  0  0
 18 19  1  0  0  0  0
 18 20  2  0  0  0  0
 20 21  1  0  0  0  0
 20 22  1  0  0  0  0
 22 23  2  0  0  0  0
  3 26  1  0  0  0  0
  6 27  1  0  0  0  0
  8 28  1  0  0  0  0
  8 29  1  0  0  0  0
  9 30  1  0  0  0  0
 12 31  1  0  0  0  0
 12 32  1  0  0  0  0
 13 33  1  0  0  0  0
 13 34  1  0  0  0  0
 14 35  1  0  0  0  0
 14 36  1  0  0  0  0
 17 37  1  0  0  0  0
 19 38  1  0  0  0  0
 19 39  1  0  0  0  0
 19 40  1  0  0  0  0
 22 41  1  0  0  0  0
 23 42  1  0  0  0  0
M  END
> <r_user_dG.exp>
-9.22585200324184

$$$$
52
  -OEChem-05192314073D
 Structure written by MMmdl.
 42 44  0     0  0  0  0  0  0999 V2000
    3.6519  -50.1731    7.5910 O   0  0  0  0  0  0  0  0  0  0  0  0
    3.0433  -49.1959    7.1015 C   0  0  0  0  0  0  0  0  0  0  0  0
    3.5655  -48.0687    6.9870 O   0  0  0  0  0  0  0  0  0  0  0  0
    1.6483  -49.3725    6.6570 C   0  0  0  0  0  0  0  0  0  0  0  0
   -0.3320  -50.4839    6.5819 C   0  0  0  0  0  0  0  0  0  0  0  0
   -1.4113  -51.3646    6.7488 C   0  0  0  0  0  0  0  0  0  0  0  0
   -2.6844  -50.9778    6.2976 C   0  0  0  0  0  0  0  0  0  0  0  0
   -2.8676  -49.7470    5.6359 C   0  0  0  0  0  0  0  0  0  0  0  0
   -1.7777  -48.8758    5.4639 C   0  0  0  0  0  0  0  0  0  0  0  0
   -0.4901  -49.2182    5.9483 C   0  0  0  0  0  0  0  0  0  0  0  0
    0.7777  -48.5424    5.9916 C   0  0  0  0  0  0  0  0  0  0  0  0
    1.0475  -47.1566    5.5153 C   0  0  0  0  0  0  0  0  0  0  0  0
    1.0218  -46.1839    6.7045 C   0  0  0  0  0  0  0  0  0  0  0  0
    0.4477  -44.8206    6.3095 C   0  0  0  0  0  0  0  0  0  0  0  0
   -0.8651  -44.8822    5.7760 O   0  0  0  0  0  0  0  0  0  0  0  0
   -1.9430  -45.1814    6.5878 C   0  0  0  0  0  0  0  0  0  0  0  0
   -3.2160  -45.1421    5.9801 C   0  0  0  0  0  0  0  0  0  0  0  0
   -4.3936  -45.3534    6.7336 C   0  0  0  0  0  0  0  0  0  0  0  0
   -5.7495  -45.1797    6.0705 C   0  0  0  0  0  0  0  0  0  0  0  0
   -4.2869  -45.6872    8.1025 C   0  0  0  0  0  0  0  0  0  0  0  0
   -5.6898  -46.0040    9.0603 Cl  0  0  0  0  0  0  0  0  0  0  0  0
   -3.0245  -45.7414    8.7159 C   0  0  0  0  0  0  0  0  0  0  0  0
   -1.8648  -45.4531    7.9752 C   0  0  0  0  0  0  0  0  0  0  0  0
   -4.0424  -51.9828    6.5895 Cl  0  0  0  0  0  0  0  0  0  0  0  0
    0.9956  -50.5546    6.9557 N   0  0  0  0  0  0  0  0  0  0  0  0
    4.4544  -48.0956    7.3211 H   0  0  0  0  0  0  0  0  0  0  0  0
   -1.1521  -52.2949    6.2223 H   0  0  0  0  0  0  0  0  0  0  0  0
   -1.4991  -51.5656    7.8267 H   0  0  0  0  0  0  0  0  0  0  0  0
   -3.8432  -49.4737    5.2618 H   0  0  0  0  0  0  0  0  0  0  0  0
   -1.9232  -47.9337    4.9563 H   0  0  0  0  0  0  0  0  0  0  0  0
    2.0369  -47.1213    5.0358 H   0  0  0  0  0  0  0  0  0  0  0  0
    0.2765  -46.8640    4.7873 H   0  0  0  0  0  0  0  0  0  0  0  0
    0.4003  -46.6143    7.5036 H   0  0  0  0  0  0  0  0  0  0  0  0
    2.0487  -46.0448    7.0734 H   0  0  0  0  0  0  0  0  0  0  0  0
    0.4283  -44.1807    7.2040 H   0  0  0  0  0  0  0  0  0  0  0  0
    1.1084  -44.3728    5.5526 H   0  0  0  0  0  0  0  0  0  0  0  0
   -3.2921  -44.9472    4.9206 H   0  0  0  0  0  0  0  0  0  0  0  0
   -6.0790  -46.1417    5.6510 H   0  0  0  0  0  0  0  0  0  0  0  0
   -6.4809  -44.8353    6.8165 H   0  0  0  0  0  0  0  0  0  0  0  0
   -5.6705  -44.4360    5.2639 H   0  0  0  0  0  0  0  0  0  0  0  0
   -2.9444  -46.0054    9.7601 H   0  0  0  0  0  0  0  0  0  0  0  0
   -0.9046  -45.4387    8.4694 H   0  0  0  0  0  0  0  0  0  0  0  0
  1  2  2  0  0  0  0
  2  3  1  0  0  0  0
  2  4  1  0  0  0  0
  4 11  2  0  0  0  0
  4 25  1  0  0  0  0
  5  6  1  0  0  0  0
  5 10  1  0  0  0  0
  5 25  2  0  0  0  0
  6  7  1  0  0  0  0
  7  8  2  0  0  0  0
  7 24  1  0  0  0  0
  8  9  1  0  0  0  0
  9 10  2  0  0  0  0
 10 11  1  0  0  0  0
 11 12  1  0  0  0  0
 12 13  1  0  0  0  0
 13 14  1  0  0  0  0
 14 15  1  0  0  0  0
 15 16  1  0  0  0  0
 16 17  2  0  0  0  0
 16 23  1  0  0  0  0
 17 18  1  0  0  0  0
 18 19  1  0  0  0  0
 18 20  2  0  0  0  0
 20 21  1  0  0  0  0
 20 22  1  0  0  0  0
 22 23  2  0  0  0  0
  3 26  1  0  0  0  0
  6 27  1  0  0  0  0
  6 28  1  0  0  0  0
  8 29  1  0  0  0  0
  9 30  1  0  0  0  0
 12 31  1  0  0  0  0
 12 32  1  0  0  0  0
 13 33  1  0  0  0  0
 13 34  1  0  0  0  0
 14 35  1  0  0  0  0
 14 36  1  0  0  0  0
 17 37  1  0  0  0  0
 19 38  1  0  0  0  0
 19 39  1  0  0  0  0
 19 40  1  0  0  0  0
 22 41  1  0  0  0  0
 23 42  1  0  0  0  0
M  END
> <r_user_dG.exp>
-9.22585200324184

$$$$
52
  -OEChem-05192314073D
 Structure written by MMmdl.
 42 44  0     0  0  0  0  0  0999 V2000
    3.6519  -50.1731    7.5910 O   0  0  0  0  0  0  0  0  0  0  0  0
    3.0433  -49.1959    7.1015 C   0  0  0  0  0  0  0  0  0  0  0  0
    3.5655  -48.0687    6.9870 O   0  0  0  0  0  0  0  0  0  0  0  0
    1.6483  -49.3725    6.6570 C   0  0  0  0  0  0  0  0  0  0  0  0
   -0.3320  -50.4839    6.5819 C   0  0  0  0  0  0  0  0  0  0  0  0
   -1.4113  -51.3646    6.7488 C   0  0  0  0  0  0  0  0  0  0  0  0
   -2.6844  -50.9778    6.2976 C   0  0  0  0  0  0  0  0  0  0  0  0
   -2.8676  -49.7470    5.6359 C   0  0  0  0  0  0  0  0  0  0  0  0
   -1.7777  -48.8758    5.4639 C   0  0  0  0  0  0  0  0  0  0  0  0
   -0.4901  -49.2182    5.9483 C   0  0  0  0  0  0  0  0  0  0  0  0
    0.7777  -48.5424    5.9916 C   0  0  0  0  0  0  0  0  0  0  0  0
    1.0475  -47.1566    5.5153 C   0  0  0  0  0  0  0  0  0  0  0  0
    1.0218  -46.1839    6.7045 C   0  0  0  0  0  0  0  0  0  0  0  0
    0.4477  -44.8206    6.3095 C   0  0  0  0  0  0  0  0  0  0  0  0
   -0.8651  -44.8822    5.7760 O   0  0  0  0  0  0  0  0  0  0  0  0
   -1.9430  -45.1814    6.5878 C   0  0  0  0  0  0  0  0  0  0  0  0
   -3.2160  -45.1421    5.9801 C   0  0  0  0  0  0  0  0  0  0  0  0
   -4.3936  -45.3534    6.7336 C   0  0  0  0  0  0  0  0  0  0  0  0
   -5.7495  -45.1797    6.0705 C   0  0  0  0  0  0  0  0  0  0  0  0
   -4.2869  -45.6872    8.1025 C   0  0  0  0  0  0  0  0  0  0  0  0
   -5.6898  -46.0040    9.0603 Cl  0  0  0  0  0  0  0  0  0  0  0  0
   -3.0245  -45.7414    8.7159 C   0  0  0  0  0  0  0  0  0  0  0  0
   -1.8648  -45.4531    7.9752 C   0  0  0  0  0  0  0  0  0  0  0  0
   -4.0424  -51.9828    6.5895 Cl  0  0  0  0  0  0  0  0  0  0  0  0
    0.9956  -50.5546    6.9557 N   0  0  0  0  0  0  0  0  0  0  0  0
    3.0834  -50.9342    7.5889 H   0  0  0  0  0  0  0  0  0  0  0  0
    2.9421  -47.4688    6.5946 H   0  0  0  0  0  0  0  0  0  0  0  0
   -1.2655  -52.3266    7.2176 H   0  0  0  0  0  0  0  0  0  0  0  0
   -3.8432  -49.4737    5.2618 H   0  0  0  0  0  0  0  0  0  0  0  0
   -1.9232  -47.9337    4.9563 H   0  0  0  0  0  0  0  0  0  0  0  0
    2.0369  -47.1213    5.0358 H   0  0  0  0  0  0  0  0  0  0  0  0
    0.2765  -46.8640    4.7873 H   0  0  0  0  0  0  0  0  0  0  0  0
    0.4003  -46.6143    7.5036 H   0  0  0  0  0  0  0  0  0  0  0  0
    2.0487  -46.0448    7.0734 H   0  0  0  0  0  0  0  0  0  0  0  0
    0.4283  -44.1807    7.2040 H   0  0  0  0  0  0  0  0  0  0  0  0
    1.1084  -44.3728    5.5526 H   0  0  0  0  0  0  0  0  0  0  0  0
   -3.2921  -44.9472    4.9206 H   0  0  0  0  0  0  0  0  0  0  0  0
   -6.0790  -46.1417    5.6510 H   0  0  0  0  0  0  0  0  0  0  0  0
   -6.4809  -44.8353    6.8165 H   0  0  0  0  0  0  0  0  0  0  0  0
   -5.6705  -44.4360    5.2639 H   0  0  0  0  0  0  0  0  0  0  0  0
   -2.9444  -46.0054    9.7601 H   0  0  0  0  0  0  0  0  0  0  0  0
   -0.9046  -45.4387    8.4694 H   0  0  0  0  0  0  0  0  0  0  0  0
  1  2  1  0  0  0  0
  2  3  1  0  0  0  0
  2  4  2  0  0  0  0
  4 11  1  0  0  0  0
  4 25  1  0  0  0  0
  5  6  1  0  0  0  0
  5 10  1  0  0  0  0
  5 25  2  0  0  0  0
  6  7  2  0  0  0  0
  7  8  1  0  0  0  0
  7 24  1  0  0  0  0
  8  9  2  0  0  0  0
  9 10  1  0  0  0  0
 10 11  2  0  0  0  0
 11 12  1  0  0  0  0
 12 13  1  0  0  0  0
 13 14  1  0  0  0  0
 14 15  1  0  0  0  0
 15 16  1  0  0  0  0
 16 17  2  0  0  0  0
 16 23  1  0  0  0  0
 17 18  1  0  0  0  0
 18 19  1  0  0  0  0
 18 20  2  0  0  0  0
 20 21  1  0  0  0  0
 20 22  1  0  0  0  0
 22 23  2  0  0  0  0
  1 26  1  0  0  0  0
  3 27  1  0  0  0  0
  6 28  1  0  0  0  0
  8 29  1  0  0  0  0
  9 30  1  0  0  0  0
 12 31  1  0  0  0  0
 12 32  1  0  0  0  0
 13 33  1  0  0  0  0
 13 34  1  0  0  0  0
 14 35  1  0  0  0  0
 14 36  1  0  0  0  0
 17 37  1  0  0  0  0
 19 38  1  0  0  0  0
 19 39  1  0  0  0  0
 19 40  1  0  0  0  0
 22 41  1  0  0  0  0
 23 42  1  0  0  0  0
M  END
> <r_user_dG.exp>
-9.22585200324184

$$$$
