23
  -OEChem-05162309453D
 Structure written by MMmdl.
 44 47  0     0  0  0  0  0  0999 V2000
    3.9452  -49.5972    7.0411 O   0  0  0  0  0  0  0  0  0  0  0  0
    3.1365  -48.7364    6.6226 C   0  0  0  0  0  0  0  0  0  0  0  0
    3.5094  -47.5621    6.3942 O   0  0  0  0  0  0  0  0  0  0  0  0
    1.7049  -49.1070    6.4070 C   0  0  0  0  0  0  0  0  0  0  0  0
    1.3259  -50.7950    6.6839 S   0  0  0  0  0  0  0  0  0  0  0  0
   -0.3704  -50.5332    6.3111 C   0  0  0  0  0  0  0  0  0  0  0  0
   -1.4069  -51.4759    6.3365 C   0  0  0  0  0  0  0  0  0  0  0  0
   -2.7213  -51.0964    6.0060 C   0  0  0  0  0  0  0  0  0  0  0  0
   -2.9841  -49.7599    5.6503 C   0  0  0  0  0  0  0  0  0  0  0  0
   -1.9354  -48.8209    5.6277 C   0  0  0  0  0  0  0  0  0  0  0  0
   -0.6073  -49.1678    5.9622 C   0  0  0  0  0  0  0  0  0  0  0  0
    0.5988  -48.3581    6.0318 C   0  0  0  0  0  0  0  0  0  0  0  0
    0.5988  -46.8757    5.7329 C   0  0  0  0  0  0  0  0  0  0  0  0
    0.5107  -45.9949    6.9975 C   0  0  0  0  0  0  0  0  0  0  0  0
   -0.7268  -46.2231    7.8886 C   0  0  0  0  0  0  0  0  0  0  0  0
   -1.9204  -45.8789    7.1949 O   0  0  0  0  0  0  0  0  0  0  0  0
   -3.1305  -45.9365    7.8645 C   0  0  0  0  0  0  0  0  0  0  0  0
   -5.6581  -45.9747    9.1652 C   0  0  0  0  0  0  0  0  0  0  0  0
   -4.5054  -46.3958    9.8517 C   0  0  0  0  0  0  0  0  0  0  0  0
   -3.2501  -46.3737    9.2104 C   0  0  0  0  0  0  0  0  0  0  0  0
   -5.5579  -45.5466    7.8298 C   0  0  0  0  0  0  0  0  0  0  0  0
   -4.3029  -45.5385    7.1795 C   0  0  0  0  0  0  0  0  0  0  0  0
   -4.2262  -45.1320    5.8356 C   0  0  0  0  0  0  0  0  0  0  0  0
   -5.3873  -44.7274    5.1423 C   0  0  0  0  0  0  0  0  0  0  0  0
   -6.6341  -44.7213    5.7969 C   0  0  0  0  0  0  0  0  0  0  0  0
   -6.7133  -45.1304    7.1466 C   0  0  0  0  0  0  0  0  0  0  0  0
    4.4360  -47.4804    6.5873 H   0  0  0  0  0  0  0  0  0  0  0  0
   -1.1961  -52.4989    6.6111 H   0  0  0  0  0  0  0  0  0  0  0  0
   -3.5201  -51.8230    6.0251 H   0  0  0  0  0  0  0  0  0  0  0  0
   -3.9884  -49.4555    5.3952 H   0  0  0  0  0  0  0  0  0  0  0  0
   -2.1534  -47.8015    5.3453 H   0  0  0  0  0  0  0  0  0  0  0  0
    1.5282  -46.6277    5.1994 H   0  0  0  0  0  0  0  0  0  0  0  0
   -0.2646  -46.6497    5.0899 H   0  0  0  0  0  0  0  0  0  0  0  0
    1.4058  -46.1885    7.6068 H   0  0  0  0  0  0  0  0  0  0  0  0
    0.5062  -44.9428    6.6765 H   0  0  0  0  0  0  0  0  0  0  0  0
   -0.7715  -47.2832    8.1788 H   0  0  0  0  0  0  0  0  0  0  0  0
   -0.6415  -45.5993    8.7906 H   0  0  0  0  0  0  0  0  0  0  0  0
   -6.6170  -45.9801    9.6620 H   0  0  0  0  0  0  0  0  0  0  0  0
   -4.5820  -46.7372   10.8734 H   0  0  0  0  0  0  0  0  0  0  0  0
   -2.3698  -46.6927    9.7485 H   0  0  0  0  0  0  0  0  0  0  0  0
   -3.2718  -45.1293    5.3301 H   0  0  0  0  0  0  0  0  0  0  0  0
   -5.3194  -44.4222    4.1086 H   0  0  0  0  0  0  0  0  0  0  0  0
   -7.5232  -44.4062    5.2709 H   0  0  0  0  0  0  0  0  0  0  0  0
   -7.6658  -45.1233    7.6556 H   0  0  0  0  0  0  0  0  0  0  0  0
  1  2  2  0  0  0  0
  2  3  1  0  0  0  0
  2  4  1  0  0  0  0
  4  5  1  0  0  0  0
  4 12  2  0  0  0  0
  5  6  1  0  0  0  0
  6  7  2  0  0  0  0
  6 11  1  0  0  0  0
  7  8  1  0  0  0  0
  8  9  2  0  0  0  0
  9 10  1  0  0  0  0
 10 11  2  0  0  0  0
 11 12  1  0  0  0  0
 12 13  1  0  0  0  0
 13 14  1  0  0  0  0
 14 15  1  0  0  0  0
 15 16  1  0  0  0  0
 16 17  1  0  0  0  0
 17 20  2  0  0  0  0
 17 22  1  0  0  0  0
 18 19  2  0  0  0  0
 18 21  1  0  0  0  0
 19 20  1  0  0  0  0
 21 22  2  0  0  0  0
 21 26  1  0  0  0  0
 22 23  1  0  0  0  0
 23 24  2  0  0  0  0
 24 25  1  0  0  0  0
 25 26  2  0  0  0  0
  3 27  1  0  0  0  0
  7 28  1  0  0  0  0
  8 29  1  0  0  0  0
  9 30  1  0  0  0  0
 10 31  1  0  0  0  0
 13 32  1  0  0  0  0
 13 33  1  0  0  0  0
 14 34  1  0  0  0  0
 14 35  1  0  0  0  0
 15 36  1  0  0  0  0
 15 37  1  0  0  0  0
 18 38  1  0  0  0  0
 19 39  1  0  0  0  0
 20 40  1  0  0  0  0
 23 41  1  0  0  0  0
 24 42  1  0  0  0  0
 25 43  1  0  0  0  0
 26 44  1  0  0  0  0
M  END
> <r_user_dG.exp>
-8.82854391662772

$$$$
