35
  -OEChem-05192314073D
 Structure written by MMmdl.
 42 44  0     0  0  0  0  0  0999 V2000
    3.5648  -47.8113    6.2796 O   0  0  0  0  0  0  0  0  0  0  0  0
    3.0310  -48.8242    6.8004 C   0  0  0  0  0  0  0  0  0  0  0  0
    3.6630  -49.5724    7.5811 O   0  0  0  0  0  0  0  0  0  0  0  0
    1.6183  -49.1519    6.4787 C   0  0  0  0  0  0  0  0  0  0  0  0
   -0.2217  -50.4968    6.5938 C   0  0  0  0  0  0  0  0  0  0  0  0
   -1.1816  -51.5029    6.8463 C   0  0  0  0  0  0  0  0  0  0  0  0
   -2.4635  -51.3995    6.2697 C   0  0  0  0  0  0  0  0  0  0  0  0
   -2.7770  -50.2885    5.4590 C   0  0  0  0  0  0  0  0  0  0  0  0
   -1.8231  -49.2850    5.2249 C   0  0  0  0  0  0  0  0  0  0  0  0
   -0.5246  -49.3637    5.7854 C   0  0  0  0  0  0  0  0  0  0  0  0
    0.6491  -48.5159    5.7434 C   0  0  0  0  0  0  0  0  0  0  0  0
    0.7691  -47.1896    5.0377 C   0  0  0  0  0  0  0  0  0  0  0  0
    0.8370  -45.9992    6.0190 C   0  0  0  0  0  0  0  0  0  0  0  0
   -0.4250  -45.8461    6.8783 C   0  0  0  0  0  0  0  0  0  0  0  0
   -1.5112  -45.4316    6.0568 O   0  0  0  0  0  0  0  0  0  0  0  0
   -2.7184  -45.2208    6.6770 C   0  0  0  0  0  0  0  0  0  0  0  0
   -3.0811  -45.7923    7.9227 C   0  0  0  0  0  0  0  0  0  0  0  0
   -4.3343  -45.5354    8.5139 C   0  0  0  0  0  0  0  0  0  0  0  0
   -5.2346  -44.6602    7.8591 C   0  0  0  0  0  0  0  0  0  0  0  0
   -4.8952  -44.1086    6.6071 C   0  0  0  0  0  0  0  0  0  0  0  0
   -3.6498  -44.3988    6.0191 C   0  0  0  0  0  0  0  0  0  0  0  0
    1.0877  -50.3279    6.9944 N   0  0  0  0  0  0  0  0  0  0  0  0
   -6.7603  -44.2478    8.5596 Cl  0  0  0  0  0  0  0  0  0  0  0  0
   -4.6696  -46.2368    9.8281 C   0  0  0  0  0  0  0  0  0  0  0  0
    4.5483  -49.2445    7.6874 H   0  0  0  0  0  0  0  0  0  0  0  0
   -0.9347  -52.3446    7.4763 H   0  0  0  0  0  0  0  0  0  0  0  0
   -3.2021  -52.1671    6.4477 H   0  0  0  0  0  0  0  0  0  0  0  0
   -3.7583  -50.2091    5.0149 H   0  0  0  0  0  0  0  0  0  0  0  0
   -2.0840  -48.4386    4.6069 H   0  0  0  0  0  0  0  0  0  0  0  0
    1.6847  -47.1964    4.4281 H   0  0  0  0  0  0  0  0  0  0  0  0
   -0.1057  -47.0579    4.3840 H   0  0  0  0  0  0  0  0  0  0  0  0
    1.6982  -46.1467    6.6872 H   0  0  0  0  0  0  0  0  0  0  0  0
    0.9776  -45.0758    5.4380 H   0  0  0  0  0  0  0  0  0  0  0  0
   -0.6679  -46.8106    7.3481 H   0  0  0  0  0  0  0  0  0  0  0  0
   -0.2475  -45.0922    7.6594 H   0  0  0  0  0  0  0  0  0  0  0  0
   -2.3810  -46.4394    8.4302 H   0  0  0  0  0  0  0  0  0  0  0  0
   -5.5932  -43.4611    6.0973 H   0  0  0  0  0  0  0  0  0  0  0  0
   -3.4070  -43.9852    5.0514 H   0  0  0  0  0  0  0  0  0  0  0  0
    1.5883  -50.9670    7.5783 H   0  0  0  0  0  0  0  0  0  0  0  0
   -4.3466  -45.6095   10.6720 H   0  0  0  0  0  0  0  0  0  0  0  0
   -5.7554  -46.4020    9.8888 H   0  0  0  0  0  0  0  0  0  0  0  0
   -4.1485  -47.2046    9.8704 H   0  0  0  0  0  0  0  0  0  0  0  0
  1  2  2  0  0  0  0
  2  3  1  0  0  0  0
  2  4  1  0  0  0  0
  4 11  2  0  0  0  0
  4 22  1  0  0  0  0
  5  6  2  0  0  0  0
  5 10  1  0  0  0  0
  5 22  1  0  0  0  0
  6  7  1  0  0  0  0
  7  8  2  0  0  0  0
  8  9  1  0  0  0  0
  9 10  2  0  0  0  0
 10 11  1  0  0  0  0
 11 12  1  0  0  0  0
 12 13  1  0  0  0  0
 13 14  1  0  0  0  0
 14 15  1  0  0  0  0
 15 16  1  0  0  0  0
 16 17  2  0  0  0  0
 16 21  1  0  0  0  0
 17 18  1  0  0  0  0
 18 19  2  0  0  0  0
 18 24  1  0  0  0  0
 19 20  1  0  0  0  0
 19 23  1  0  0  0  0
 20 21  2  0  0  0  0
  3 25  1  0  0  0  0
  6 26  1  0  0  0  0
  7 27  1  0  0  0  0
  8 28  1  0  0  0  0
  9 29  1  0  0  0  0
 12 30  1  0  0  0  0
 12 31  1  0  0  0  0
 13 32  1  0  0  0  0
 13 33  1  0  0  0  0
 14 34  1  0  0  0  0
 14 35  1  0  0  0  0
 17 36  1  0  0  0  0
 20 37  1  0  0  0  0
 21 38  1  0  0  0  0
 22 39  1  0  0  0  0
 24 40  1  0  0  0  0
 24 41  1  0  0  0  0
 24 42  1  0  0  0  0
M  END
> <r_user_dG.exp>
-8.81264617449463

$$$$
35
  -OEChem-05192314073D
 Structure written by MMmdl.
 42 44  0     1  0  0  0  0  0999 V2000
    3.5648  -47.8113    6.2796 O   0  0  0  0  0  0  0  0  0  0  0  0
    3.0310  -48.8242    6.8004 C   0  0  0  0  0  0  0  0  0  0  0  0
    3.6630  -49.5724    7.5811 O   0  0  0  0  0  0  0  0  0  0  0  0
    1.6183  -49.1519    6.4787 C   0  0  0  0  0  0  0  0  0  0  0  0
   -0.2217  -50.4968    6.5938 C   0  0  0  0  0  0  0  0  0  0  0  0
   -1.1816  -51.5029    6.8463 C   0  0  0  0  0  0  0  0  0  0  0  0
   -2.4635  -51.3995    6.2697 C   0  0  0  0  0  0  0  0  0  0  0  0
   -2.7770  -50.2885    5.4590 C   0  0  0  0  0  0  0  0  0  0  0  0
   -1.8231  -49.2850    5.2249 C   0  0  0  0  0  0  0  0  0  0  0  0
   -0.5246  -49.3637    5.7854 C   0  0  0  0  0  0  0  0  0  0  0  0
    0.6491  -48.5159    5.7434 C   0  0  3  0  0  0  0  0  0  0  0  0
    0.7691  -47.1896    5.0377 C   0  0  0  0  0  0  0  0  0  0  0  0
    0.8370  -45.9992    6.0190 C   0  0  0  0  0  0  0  0  0  0  0  0
   -0.4250  -45.8461    6.8783 C   0  0  0  0  0  0  0  0  0  0  0  0
   -1.5112  -45.4316    6.0568 O   0  0  0  0  0  0  0  0  0  0  0  0
   -2.7184  -45.2208    6.6770 C   0  0  0  0  0  0  0  0  0  0  0  0
   -3.0811  -45.7923    7.9227 C   0  0  0  0  0  0  0  0  0  0  0  0
   -4.3343  -45.5354    8.5139 C   0  0  0  0  0  0  0  0  0  0  0  0
   -5.2346  -44.6602    7.8591 C   0  0  0  0  0  0  0  0  0  0  0  0
   -4.8952  -44.1086    6.6071 C   0  0  0  0  0  0  0  0  0  0  0  0
   -3.6498  -44.3988    6.0191 C   0  0  0  0  0  0  0  0  0  0  0  0
    1.0877  -50.3279    6.9944 N   0  0  0  0  0  0  0  0  0  0  0  0
   -6.7603  -44.2478    8.5596 Cl  0  0  0  0  0  0  0  0  0  0  0  0
   -4.6696  -46.2368    9.8281 C   0  0  0  0  0  0  0  0  0  0  0  0
    4.5483  -49.2445    7.6874 H   0  0  0  0  0  0  0  0  0  0  0  0
   -0.9347  -52.3446    7.4763 H   0  0  0  0  0  0  0  0  0  0  0  0
   -3.2021  -52.1671    6.4477 H   0  0  0  0  0  0  0  0  0  0  0  0
   -3.7583  -50.2091    5.0149 H   0  0  0  0  0  0  0  0  0  0  0  0
   -2.0840  -48.4386    4.6069 H   0  0  0  0  0  0  0  0  0  0  0  0
    0.9938  -49.0331    4.8359 H   0  0  0  0  0  0  0  0  0  0  0  0
    1.6847  -47.1964    4.4281 H   0  0  0  0  0  0  0  0  0  0  0  0
   -0.1057  -47.0579    4.3840 H   0  0  0  0  0  0  0  0  0  0  0  0
    1.6982  -46.1467    6.6872 H   0  0  0  0  0  0  0  0  0  0  0  0
    0.9776  -45.0758    5.4380 H   0  0  0  0  0  0  0  0  0  0  0  0
   -0.6679  -46.8106    7.3481 H   0  0  0  0  0  0  0  0  0  0  0  0
   -0.2475  -45.0922    7.6594 H   0  0  0  0  0  0  0  0  0  0  0  0
   -2.3810  -46.4394    8.4302 H   0  0  0  0  0  0  0  0  0  0  0  0
   -5.5932  -43.4611    6.0973 H   0  0  0  0  0  0  0  0  0  0  0  0
   -3.4070  -43.9852    5.0514 H   0  0  0  0  0  0  0  0  0  0  0  0
   -4.3466  -45.6095   10.6720 H   0  0  0  0  0  0  0  0  0  0  0  0
   -5.7554  -46.4020    9.8888 H   0  0  0  0  0  0  0  0  0  0  0  0
   -4.1485  -47.2046    9.8704 H   0  0  0  0  0  0  0  0  0  0  0  0
  1  2  2  0  0  0  0
  2  3  1  0  0  0  0
  2  4  1  0  0  0  0
  4 11  1  0  0  0  0
  4 22  2  0  0  0  0
  5  6  2  0  0  0  0
  5 10  1  0  0  0  0
  5 22  1  0  0  0  0
  6  7  1  0  0  0  0
  7  8  2  0  0  0  0
  8  9  1  0  0  0  0
  9 10  2  0  0  0  0
 10 11  1  0  0  0  0
 11 12  1  0  0  0  0
 12 13  1  0  0  0  0
 13 14  1  0  0  0  0
 14 15  1  0  0  0  0
 15 16  1  0  0  0  0
 16 17  2  0  0  0  0
 16 21  1  0  0  0  0
 17 18  1  0  0  0  0
 18 19  2  0  0  0  0
 18 24  1  0  0  0  0
 19 20  1  0  0  0  0
 19 23  1  0  0  0  0
 20 21  2  0  0  0  0
  3 25  1  0  0  0  0
  6 26  1  0  0  0  0
  7 27  1  0  0  0  0
  8 28  1  0  0  0  0
  9 29  1  0  0  0  0
 11 30  1  0  0  0  0
 12 31  1  0  0  0  0
 12 32  1  0  0  0  0
 13 33  1  0  0  0  0
 13 34  1  0  0  0  0
 14 35  1  0  0  0  0
 14 36  1  0  0  0  0
 17 37  1  0  0  0  0
 20 38  1  0  0  0  0
 21 39  1  0  0  0  0
 24 40  1  0  0  0  0
 24 41  1  0  0  0  0
 24 42  1  0  0  0  0
M  END
> <r_user_dG.exp>
-8.81264617449463

$$$$
35
  -OEChem-05192314073D
 Structure written by MMmdl.
 42 44  0     1  0  0  0  0  0999 V2000
    3.5648  -47.8113    6.2796 O   0  0  0  0  0  0  0  0  0  0  0  0
    3.0310  -48.8242    6.8004 C   0  0  0  0  0  0  0  0  0  0  0  0
    3.6630  -49.5724    7.5811 O   0  0  0  0  0  0  0  0  0  0  0  0
    1.6183  -49.1519    6.4787 C   0  0  3  0  0  0  0  0  0  0  0  0
   -0.2217  -50.4968    6.5938 C   0  0  0  0  0  0  0  0  0  0  0  0
   -1.1816  -51.5029    6.8463 C   0  0  0  0  0  0  0  0  0  0  0  0
   -2.4635  -51.3995    6.2697 C   0  0  0  0  0  0  0  0  0  0  0  0
   -2.7770  -50.2885    5.4590 C   0  0  0  0  0  0  0  0  0  0  0  0
   -1.8231  -49.2850    5.2249 C   0  0  0  0  0  0  0  0  0  0  0  0
   -0.5246  -49.3637    5.7854 C   0  0  0  0  0  0  0  0  0  0  0  0
    0.6491  -48.5159    5.7434 C   0  0  0  0  0  0  0  0  0  0  0  0
    0.7691  -47.1896    5.0377 C   0  0  0  0  0  0  0  0  0  0  0  0
    0.8370  -45.9992    6.0190 C   0  0  0  0  0  0  0  0  0  0  0  0
   -0.4250  -45.8461    6.8783 C   0  0  0  0  0  0  0  0  0  0  0  0
   -1.5112  -45.4316    6.0568 O   0  0  0  0  0  0  0  0  0  0  0  0
   -2.7184  -45.2208    6.6770 C   0  0  0  0  0  0  0  0  0  0  0  0
   -3.0811  -45.7923    7.9227 C   0  0  0  0  0  0  0  0  0  0  0  0
   -4.3343  -45.5354    8.5139 C   0  0  0  0  0  0  0  0  0  0  0  0
   -5.2346  -44.6602    7.8591 C   0  0  0  0  0  0  0  0  0  0  0  0
   -4.8952  -44.1086    6.6071 C   0  0  0  0  0  0  0  0  0  0  0  0
   -3.6498  -44.3988    6.0191 C   0  0  0  0  0  0  0  0  0  0  0  0
    1.0877  -50.3279    6.9944 N   0  0  0  0  0  0  0  0  0  0  0  0
   -6.7603  -44.2478    8.5596 Cl  0  0  0  0  0  0  0  0  0  0  0  0
   -4.6696  -46.2368    9.8281 C   0  0  0  0  0  0  0  0  0  0  0  0
    4.5483  -49.2445    7.6874 H   0  0  0  0  0  0  0  0  0  0  0  0
    1.9473  -49.6931    5.5794 H   0  0  0  0  0  0  0  0  0  0  0  0
   -0.9347  -52.3446    7.4763 H   0  0  0  0  0  0  0  0  0  0  0  0
   -3.2021  -52.1671    6.4477 H   0  0  0  0  0  0  0  0  0  0  0  0
   -3.7583  -50.2091    5.0149 H   0  0  0  0  0  0  0  0  0  0  0  0
   -2.0840  -48.4386    4.6069 H   0  0  0  0  0  0  0  0  0  0  0  0
    1.6847  -47.1964    4.4281 H   0  0  0  0  0  0  0  0  0  0  0  0
   -0.1057  -47.0579    4.3840 H   0  0  0  0  0  0  0  0  0  0  0  0
    1.6982  -46.1467    6.6872 H   0  0  0  0  0  0  0  0  0  0  0  0
    0.9776  -45.0758    5.4380 H   0  0  0  0  0  0  0  0  0  0  0  0
   -0.6679  -46.8106    7.3481 H   0  0  0  0  0  0  0  0  0  0  0  0
   -0.2475  -45.0922    7.6594 H   0  0  0  0  0  0  0  0  0  0  0  0
   -2.3810  -46.4394    8.4302 H   0  0  0  0  0  0  0  0  0  0  0  0
   -5.5932  -43.4611    6.0973 H   0  0  0  0  0  0  0  0  0  0  0  0
   -3.4070  -43.9852    5.0514 H   0  0  0  0  0  0  0  0  0  0  0  0
   -4.3466  -45.6095   10.6720 H   0  0  0  0  0  0  0  0  0  0  0  0
   -5.7554  -46.4020    9.8888 H   0  0  0  0  0  0  0  0  0  0  0  0
   -4.1485  -47.2046    9.8704 H   0  0  0  0  0  0  0  0  0  0  0  0
  1  2  2  0  0  0  0
  2  3  1  0  0  0  0
  2  4  1  0  0  0  0
  4 11  1  0  0  0  0
  4 22  1  0  0  0  0
  5  6  1  0  0  0  0
  5 10  1  0  0  0  0
  5 22  2  0  0  0  0
  6  7  2  0  0  0  0
  7  8  1  0  0  0  0
  8  9  2  0  0  0  0
  9 10  1  0  0  0  0
 10 11  2  0  0  0  0
 11 12  1  0  0  0  0
 12 13  1  0  0  0  0
 13 14  1  0  0  0  0
 14 15  1  0  0  0  0
 15 16  1  0  0  0  0
 16 17  2  0  0  0  0
 16 21  1  0  0  0  0
 17 18  1  0  0  0  0
 18 19  2  0  0  0  0
 18 24  1  0  0  0  0
 19 20  1  0  0  0  0
 19 23  1  0  0  0  0
 20 21  2  0  0  0  0
  3 25  1  0  0  0  0
  4 26  1  0  0  0  0
  6 27  1  0  0  0  0
  7 28  1  0  0  0  0
  8 29  1  0  0  0  0
  9 30  1  0  0  0  0
 12 31  1  0  0  0  0
 12 32  1  0  0  0  0
 13 33  1  0  0  0  0
 13 34  1  0  0  0  0
 14 35  1  0  0  0  0
 14 36  1  0  0  0  0
 17 37  1  0  0  0  0
 20 38  1  0  0  0  0
 21 39  1  0  0  0  0
 24 40  1  0  0  0  0
 24 41  1  0  0  0  0
 24 42  1  0  0  0  0
M  END
> <r_user_dG.exp>
-8.81264617449463

$$$$
35
  -OEChem-05192314073D
 Structure written by MMmdl.
 42 44  0     1  0  0  0  0  0999 V2000
    3.5648  -47.8113    6.2796 O   0  0  0  0  0  0  0  0  0  0  0  0
    3.0310  -48.8242    6.8004 C   0  0  0  0  0  0  0  0  0  0  0  0
    3.6630  -49.5724    7.5811 O   0  0  0  0  0  0  0  0  0  0  0  0
    1.6183  -49.1519    6.4787 C   0  0  0  0  0  0  0  0  0  0  0  0
   -0.2217  -50.4968    6.5938 C   0  0  0  0  0  0  0  0  0  0  0  0
   -1.1816  -51.5029    6.8463 C   0  0  0  0  0  0  0  0  0  0  0  0
   -2.4635  -51.3995    6.2697 C   0  0  0  0  0  0  0  0  0  0  0  0
   -2.7770  -50.2885    5.4590 C   0  0  0  0  0  0  0  0  0  0  0  0
   -1.8231  -49.2850    5.2249 C   0  0  0  0  0  0  0  0  0  0  0  0
   -0.5246  -49.3637    5.7854 C   0  0  3  0  0  0  0  0  0  0  0  0
    0.6491  -48.5159    5.7434 C   0  0  0  0  0  0  0  0  0  0  0  0
    0.7691  -47.1896    5.0377 C   0  0  0  0  0  0  0  0  0  0  0  0
    0.8370  -45.9992    6.0190 C   0  0  0  0  0  0  0  0  0  0  0  0
   -0.4250  -45.8461    6.8783 C   0  0  0  0  0  0  0  0  0  0  0  0
   -1.5112  -45.4316    6.0568 O   0  0  0  0  0  0  0  0  0  0  0  0
   -2.7184  -45.2208    6.6770 C   0  0  0  0  0  0  0  0  0  0  0  0
   -3.0811  -45.7923    7.9227 C   0  0  0  0  0  0  0  0  0  0  0  0
   -4.3343  -45.5354    8.5139 C   0  0  0  0  0  0  0  0  0  0  0  0
   -5.2346  -44.6602    7.8591 C   0  0  0  0  0  0  0  0  0  0  0  0
   -4.8952  -44.1086    6.6071 C   0  0  0  0  0  0  0  0  0  0  0  0
   -3.6498  -44.3988    6.0191 C   0  0  0  0  0  0  0  0  0  0  0  0
    1.0877  -50.3279    6.9944 N   0  0  0  0  0  0  0  0  0  0  0  0
   -6.7603  -44.2478    8.5596 Cl  0  0  0  0  0  0  0  0  0  0  0  0
   -4.6696  -46.2368    9.8281 C   0  0  0  0  0  0  0  0  0  0  0  0
    4.5483  -49.2445    7.6874 H   0  0  0  0  0  0  0  0  0  0  0  0
   -0.9347  -52.3446    7.4763 H   0  0  0  0  0  0  0  0  0  0  0  0
   -3.2021  -52.1671    6.4477 H   0  0  0  0  0  0  0  0  0  0  0  0
   -3.7583  -50.2091    5.0149 H   0  0  0  0  0  0  0  0  0  0  0  0
   -2.0840  -48.4386    4.6069 H   0  0  0  0  0  0  0  0  0  0  0  0
   -0.1702  -49.9022    4.8941 H   0  0  0  0  0  0  0  0  0  0  0  0
    1.6847  -47.1964    4.4281 H   0  0  0  0  0  0  0  0  0  0  0  0
   -0.1057  -47.0579    4.3840 H   0  0  0  0  0  0  0  0  0  0  0  0
    1.6982  -46.1467    6.6872 H   0  0  0  0  0  0  0  0  0  0  0  0
    0.9776  -45.0758    5.4380 H   0  0  0  0  0  0  0  0  0  0  0  0
   -0.6679  -46.8106    7.3481 H   0  0  0  0  0  0  0  0  0  0  0  0
   -0.2475  -45.0922    7.6594 H   0  0  0  0  0  0  0  0  0  0  0  0
   -2.3810  -46.4394    8.4302 H   0  0  0  0  0  0  0  0  0  0  0  0
   -5.5932  -43.4611    6.0973 H   0  0  0  0  0  0  0  0  0  0  0  0
   -3.4070  -43.9852    5.0514 H   0  0  0  0  0  0  0  0  0  0  0  0
   -4.3466  -45.6095   10.6720 H   0  0  0  0  0  0  0  0  0  0  0  0
   -5.7554  -46.4020    9.8888 H   0  0  0  0  0  0  0  0  0  0  0  0
   -4.1485  -47.2046    9.8704 H   0  0  0  0  0  0  0  0  0  0  0  0
  1  2  2  0  0  0  0
  2  3  1  0  0  0  0
  2  4  1  0  0  0  0
  4 11  2  0  0  0  0
  4 22  1  0  0  0  0
  5  6  1  0  0  0  0
  5 10  1  0  0  0  0
  5 22  2  0  0  0  0
  6  7  2  0  0  0  0
  7  8  1  0  0  0  0
  8  9  2  0  0  0  0
  9 10  1  0  0  0  0
 10 11  1  0  0  0  0
 11 12  1  0  0  0  0
 12 13  1  0  0  0  0
 13 14  1  0  0  0  0
 14 15  1  0  0  0  0
 15 16  1  0  0  0  0
 16 17  2  0  0  0  0
 16 21  1  0  0  0  0
 17 18  1  0  0  0  0
 18 19  2  0  0  0  0
 18 24  1  0  0  0  0
 19 20  1  0  0  0  0
 19 23  1  0  0  0  0
 20 21  2  0  0  0  0
  3 25  1  0  0  0  0
  6 26  1  0  0  0  0
  7 27  1  0  0  0  0
  8 28  1  0  0  0  0
  9 29  1  0  0  0  0
 10 30  1  0  0  0  0
 12 31  1  0  0  0  0
 12 32  1  0  0  0  0
 13 33  1  0  0  0  0
 13 34  1  0  0  0  0
 14 35  1  0  0  0  0
 14 36  1  0  0  0  0
 17 37  1  0  0  0  0
 20 38  1  0  0  0  0
 21 39  1  0  0  0  0
 24 40  1  0  0  0  0
 24 41  1  0  0  0  0
 24 42  1  0  0  0  0
M  END
> <r_user_dG.exp>
-8.81264617449463

$$$$
35
  -OEChem-05192314073D
 Structure written by MMmdl.
 42 44  0     1  0  0  0  0  0999 V2000
    3.5648  -47.8113    6.2796 O   0  0  0  0  0  0  0  0  0  0  0  0
    3.0310  -48.8242    6.8004 C   0  0  0  0  0  0  0  0  0  0  0  0
    3.6630  -49.5724    7.5811 O   0  0  0  0  0  0  0  0  0  0  0  0
    1.6183  -49.1519    6.4787 C   0  0  0  0  0  0  0  0  0  0  0  0
   -0.2217  -50.4968    6.5938 C   0  0  3  0  0  0  0  0  0  0  0  0
   -1.1816  -51.5029    6.8463 C   0  0  0  0  0  0  0  0  0  0  0  0
   -2.4635  -51.3995    6.2697 C   0  0  0  0  0  0  0  0  0  0  0  0
   -2.7770  -50.2885    5.4590 C   0  0  0  0  0  0  0  0  0  0  0  0
   -1.8231  -49.2850    5.2249 C   0  0  0  0  0  0  0  0  0  0  0  0
   -0.5246  -49.3637    5.7854 C   0  0  0  0  0  0  0  0  0  0  0  0
    0.6491  -48.5159    5.7434 C   0  0  0  0  0  0  0  0  0  0  0  0
    0.7691  -47.1896    5.0377 C   0  0  0  0  0  0  0  0  0  0  0  0
    0.8370  -45.9992    6.0190 C   0  0  0  0  0  0  0  0  0  0  0  0
   -0.4250  -45.8461    6.8783 C   0  0  0  0  0  0  0  0  0  0  0  0
   -1.5112  -45.4316    6.0568 O   0  0  0  0  0  0  0  0  0  0  0  0
   -2.7184  -45.2208    6.6770 C   0  0  0  0  0  0  0  0  0  0  0  0
   -3.0811  -45.7923    7.9227 C   0  0  0  0  0  0  0  0  0  0  0  0
   -4.3343  -45.5354    8.5139 C   0  0  0  0  0  0  0  0  0  0  0  0
   -5.2346  -44.6602    7.8591 C   0  0  0  0  0  0  0  0  0  0  0  0
   -4.8952  -44.1086    6.6071 C   0  0  0  0  0  0  0  0  0  0  0  0
   -3.6498  -44.3988    6.0191 C   0  0  0  0  0  0  0  0  0  0  0  0
    1.0877  -50.3279    6.9944 N   0  0  0  0  0  0  0  0  0  0  0  0
   -6.7603  -44.2478    8.5596 Cl  0  0  0  0  0  0  0  0  0  0  0  0
   -4.6696  -46.2368    9.8281 C   0  0  0  0  0  0  0  0  0  0  0  0
    4.5483  -49.2445    7.6874 H   0  0  0  0  0  0  0  0  0  0  0  0
    0.1196  -51.0437    5.7025 H   0  0  0  0  0  0  0  0  0  0  0  0
   -0.9347  -52.3446    7.4763 H   0  0  0  0  0  0  0  0  0  0  0  0
   -3.2021  -52.1671    6.4477 H   0  0  0  0  0  0  0  0  0  0  0  0
   -3.7583  -50.2091    5.0149 H   0  0  0  0  0  0  0  0  0  0  0  0
   -2.0840  -48.4386    4.6069 H   0  0  0  0  0  0  0  0  0  0  0  0
    1.6847  -47.1964    4.4281 H   0  0  0  0  0  0  0  0  0  0  0  0
   -0.1057  -47.0579    4.3840 H   0  0  0  0  0  0  0  0  0  0  0  0
    1.6982  -46.1467    6.6872 H   0  0  0  0  0  0  0  0  0  0  0  0
    0.9776  -45.0758    5.4380 H   0  0  0  0  0  0  0  0  0  0  0  0
   -0.6679  -46.8106    7.3481 H   0  0  0  0  0  0  0  0  0  0  0  0
   -0.2475  -45.0922    7.6594 H   0  0  0  0  0  0  0  0  0  0  0  0
   -2.3810  -46.4394    8.4302 H   0  0  0  0  0  0  0  0  0  0  0  0
   -5.5932  -43.4611    6.0973 H   0  0  0  0  0  0  0  0  0  0  0  0
   -3.4070  -43.9852    5.0514 H   0  0  0  0  0  0  0  0  0  0  0  0
   -4.3466  -45.6095   10.6720 H   0  0  0  0  0  0  0  0  0  0  0  0
   -5.7554  -46.4020    9.8888 H   0  0  0  0  0  0  0  0  0  0  0  0
   -4.1485  -47.2046    9.8704 H   0  0  0  0  0  0  0  0  0  0  0  0
  1  2  2  0  0  0  0
  2  3  1  0  0  0  0
  2  4  1  0  0  0  0
  4 11  1  0  0  0  0
  4 22  2  0  0  0  0
  5  6  1  0  0  0  0
  5 10  1  0  0  0  0
  5 22  1  0  0  0  0
  6  7  2  0  0  0  0
  7  8  1  0  0  0  0
  8  9  2  0  0  0  0
  9 10  1  0  0  0  0
 10 11  2  0  0  0  0
 11 12  1  0  0  0  0
 12 13  1  0  0  0  0
 13 14  1  0  0  0  0
 14 15  1  0  0  0  0
 15 16  1  0  0  0  0
 16 17  2  0  0  0  0
 16 21  1  0  0  0  0
 17 18  1  0  0  0  0
 18 19  2  0  0  0  0
 18 24  1  0  0  0  0
 19 20  1  0  0  0  0
 19 23  1  0  0  0  0
 20 21  2  0  0  0  0
  3 25  1  0  0  0  0
  5 26  1  0  0  0  0
  6 27  1  0  0  0  0
  7 28  1  0  0  0  0
  8 29  1  0  0  0  0
  9 30  1  0  0  0  0
 12 31  1  0  0  0  0
 12 32  1  0  0  0  0
 13 33  1  0  0  0  0
 13 34  1  0  0  0  0
 14 35  1  0  0  0  0
 14 36  1  0  0  0  0
 17 37  1  0  0  0  0
 20 38  1  0  0  0  0
 21 39  1  0  0  0  0
 24 40  1  0  0  0  0
 24 41  1  0  0  0  0
 24 42  1  0  0  0  0
M  END
> <r_user_dG.exp>
-8.81264617449463

$$$$
35
  -OEChem-05192314073D
 Structure written by MMmdl.
 42 44  0     0  0  0  0  0  0999 V2000
    3.5648  -47.8113    6.2796 O   0  0  0  0  0  0  0  0  0  0  0  0
    3.0310  -48.8242    6.8004 C   0  0  0  0  0  0  0  0  0  0  0  0
    3.6630  -49.5724    7.5811 O   0  0  0  0  0  0  0  0  0  0  0  0
    1.6183  -49.1519    6.4787 C   0  0  0  0  0  0  0  0  0  0  0  0
   -0.2217  -50.4968    6.5938 C   0  0  0  0  0  0  0  0  0  0  0  0
   -1.1816  -51.5029    6.8463 C   0  0  0  0  0  0  0  0  0  0  0  0
   -2.4635  -51.3995    6.2697 C   0  0  0  0  0  0  0  0  0  0  0  0
   -2.7770  -50.2885    5.4590 C   0  0  0  0  0  0  0  0  0  0  0  0
   -1.8231  -49.2850    5.2249 C   0  0  0  0  0  0  0  0  0  0  0  0
   -0.5246  -49.3637    5.7854 C   0  0  0  0  0  0  0  0  0  0  0  0
    0.6491  -48.5159    5.7434 C   0  0  0  0  0  0  0  0  0  0  0  0
    0.7691  -47.1896    5.0377 C   0  0  0  0  0  0  0  0  0  0  0  0
    0.8370  -45.9992    6.0190 C   0  0  0  0  0  0  0  0  0  0  0  0
   -0.4250  -45.8461    6.8783 C   0  0  0  0  0  0  0  0  0  0  0  0
   -1.5112  -45.4316    6.0568 O   0  0  0  0  0  0  0  0  0  0  0  0
   -2.7184  -45.2208    6.6770 C   0  0  0  0  0  0  0  0  0  0  0  0
   -3.0811  -45.7923    7.9227 C   0  0  0  0  0  0  0  0  0  0  0  0
   -4.3343  -45.5354    8.5139 C   0  0  0  0  0  0  0  0  0  0  0  0
   -5.2346  -44.6602    7.8591 C   0  0  0  0  0  0  0  0  0  0  0  0
   -4.8952  -44.1086    6.6071 C   0  0  0  0  0  0  0  0  0  0  0  0
   -3.6498  -44.3988    6.0191 C   0  0  0  0  0  0  0  0  0  0  0  0
    1.0877  -50.3279    6.9944 N   0  0  0  0  0  0  0  0  0  0  0  0
   -6.7603  -44.2478    8.5596 Cl  0  0  0  0  0  0  0  0  0  0  0  0
   -4.6696  -46.2368    9.8281 C   0  0  0  0  0  0  0  0  0  0  0  0
    4.5483  -49.2445    7.6874 H   0  0  0  0  0  0  0  0  0  0  0  0
   -0.9347  -52.3446    7.4763 H   0  0  0  0  0  0  0  0  0  0  0  0
   -3.2021  -52.1671    6.4477 H   0  0  0  0  0  0  0  0  0  0  0  0
   -3.0627  -50.6874    4.4745 H   0  0  0  0  0  0  0  0  0  0  0  0
   -3.6453  -49.7962    5.9212 H   0  0  0  0  0  0  0  0  0  0  0  0
   -2.0840  -48.4386    4.6069 H   0  0  0  0  0  0  0  0  0  0  0  0
    1.6847  -47.1964    4.4281 H   0  0  0  0  0  0  0  0  0  0  0  0
   -0.1057  -47.0579    4.3840 H   0  0  0  0  0  0  0  0  0  0  0  0
    1.6982  -46.1467    6.6872 H   0  0  0  0  0  0  0  0  0  0  0  0
    0.9776  -45.0758    5.4380 H   0  0  0  0  0  0  0  0  0  0  0  0
   -0.6679  -46.8106    7.3481 H   0  0  0  0  0  0  0  0  0  0  0  0
   -0.2475  -45.0922    7.6594 H   0  0  0  0  0  0  0  0  0  0  0  0
   -2.3810  -46.4394    8.4302 H   0  0  0  0  0  0  0  0  0  0  0  0
   -5.5932  -43.4611    6.0973 H   0  0  0  0  0  0  0  0  0  0  0  0
   -3.4070  -43.9852    5.0514 H   0  0  0  0  0  0  0  0  0  0  0  0
   -4.3466  -45.6095   10.6720 H   0  0  0  0  0  0  0  0  0  0  0  0
   -5.7554  -46.4020    9.8888 H   0  0  0  0  0  0  0  0  0  0  0  0
   -4.1485  -47.2046    9.8704 H   0  0  0  0  0  0  0  0  0  0  0  0
  1  2  2  0  0  0  0
  2  3  1  0  0  0  0
  2  4  1  0  0  0  0
  4 11  2  0  0  0  0
  4 22  1  0  0  0  0
  5  6  1  0  0  0  0
  5 10  1  0  0  0  0
  5 22  2  0  0  0  0
  6  7  2  0  0  0  0
  7  8  1  0  0  0  0
  8  9  1  0  0  0  0
  9 10  2  0  0  0  0
 10 11  1  0  0  0  0
 11 12  1  0  0  0  0
 12 13  1  0  0  0  0
 13 14  1  0  0  0  0
 14 15  1  0  0  0  0
 15 16  1  0  0  0  0
 16 17  2  0  0  0  0
 16 21  1  0  0  0  0
 17 18  1  0  0  0  0
 18 19  2  0  0  0  0
 18 24  1  0  0  0  0
 19 20  1  0  0  0  0
 19 23  1  0  0  0  0
 20 21  2  0  0  0  0
  3 25  1  0  0  0  0
  6 26  1  0  0  0  0
  7 27  1  0  0  0  0
  8 28  1  0  0  0  0
  8 29  1  0  0  0  0
  9 30  1  0  0  0  0
 12 31  1  0  0  0  0
 12 32  1  0  0  0  0
 13 33  1  0  0  0  0
 13 34  1  0  0  0  0
 14 35  1  0  0  0  0
 14 36  1  0  0  0  0
 17 37  1  0  0  0  0
 20 38  1  0  0  0  0
 21 39  1  0  0  0  0
 24 40  1  0  0  0  0
 24 41  1  0  0  0  0
 24 42  1  0  0  0  0
M  END
> <r_user_dG.exp>
-8.81264617449463

$$$$
35
  -OEChem-05192314073D
 Structure written by MMmdl.
 42 44  0     0  0  0  0  0  0999 V2000
    3.5648  -47.8113    6.2796 O   0  0  0  0  0  0  0  0  0  0  0  0
    3.0310  -48.8242    6.8004 C   0  0  0  0  0  0  0  0  0  0  0  0
    3.6630  -49.5724    7.5811 O   0  0  0  0  0  0  0  0  0  0  0  0
    1.6183  -49.1519    6.4787 C   0  0  0  0  0  0  0  0  0  0  0  0
   -0.2217  -50.4968    6.5938 C   0  0  0  0  0  0  0  0  0  0  0  0
   -1.1816  -51.5029    6.8463 C   0  0  0  0  0  0  0  0  0  0  0  0
   -2.4635  -51.3995    6.2697 C   0  0  0  0  0  0  0  0  0  0  0  0
   -2.7770  -50.2885    5.4590 C   0  0  0  0  0  0  0  0  0  0  0  0
   -1.8231  -49.2850    5.2249 C   0  0  0  0  0  0  0  0  0  0  0  0
   -0.5246  -49.3637    5.7854 C   0  0  0  0  0  0  0  0  0  0  0  0
    0.6491  -48.5159    5.7434 C   0  0  0  0  0  0  0  0  0  0  0  0
    0.7691  -47.1896    5.0377 C   0  0  0  0  0  0  0  0  0  0  0  0
    0.8370  -45.9992    6.0190 C   0  0  0  0  0  0  0  0  0  0  0  0
   -0.4250  -45.8461    6.8783 C   0  0  0  0  0  0  0  0  0  0  0  0
   -1.5112  -45.4316    6.0568 O   0  0  0  0  0  0  0  0  0  0  0  0
   -2.7184  -45.2208    6.6770 C   0  0  0  0  0  0  0  0  0  0  0  0
   -3.0811  -45.7923    7.9227 C   0  0  0  0  0  0  0  0  0  0  0  0
   -4.3343  -45.5354    8.5139 C   0  0  0  0  0  0  0  0  0  0  0  0
   -5.2346  -44.6602    7.8591 C   0  0  0  0  0  0  0  0  0  0  0  0
   -4.8952  -44.1086    6.6071 C   0  0  0  0  0  0  0  0  0  0  0  0
   -3.6498  -44.3988    6.0191 C   0  0  0  0  0  0  0  0  0  0  0  0
    1.0877  -50.3279    6.9944 N   0  0  0  0  0  0  0  0  0  0  0  0
   -6.7603  -44.2478    8.5596 Cl  0  0  0  0  0  0  0  0  0  0  0  0
   -4.6696  -46.2368    9.8281 C   0  0  0  0  0  0  0  0  0  0  0  0
    4.5483  -49.2445    7.6874 H   0  0  0  0  0  0  0  0  0  0  0  0
   -0.9347  -52.3446    7.4763 H   0  0  0  0  0  0  0  0  0  0  0  0
   -2.6084  -52.2972    5.6507 H   0  0  0  0  0  0  0  0  0  0  0  0
   -3.1873  -51.4045    7.0980 H   0  0  0  0  0  0  0  0  0  0  0  0
   -3.7583  -50.2091    5.0149 H   0  0  0  0  0  0  0  0  0  0  0  0
   -2.0840  -48.4386    4.6069 H   0  0  0  0  0  0  0  0  0  0  0  0
    1.6847  -47.1964    4.4281 H   0  0  0  0  0  0  0  0  0  0  0  0
   -0.1057  -47.0579    4.3840 H   0  0  0  0  0  0  0  0  0  0  0  0
    1.6982  -46.1467    6.6872 H   0  0  0  0  0  0  0  0  0  0  0  0
    0.9776  -45.0758    5.4380 H   0  0  0  0  0  0  0  0  0  0  0  0
   -0.6679  -46.8106    7.3481 H   0  0  0  0  0  0  0  0  0  0  0  0
   -0.2475  -45.0922    7.6594 H   0  0  0  0  0  0  0  0  0  0  0  0
   -2.3810  -46.4394    8.4302 H   0  0  0  0  0  0  0  0  0  0  0  0
   -5.5932  -43.4611    6.0973 H   0  0  0  0  0  0  0  0  0  0  0  0
   -3.4070  -43.9852    5.0514 H   0  0  0  0  0  0  0  0  0  0  0  0
   -4.3466  -45.6095   10.6720 H   0  0  0  0  0  0  0  0  0  0  0  0
   -5.7554  -46.4020    9.8888 H   0  0  0  0  0  0  0  0  0  0  0  0
   -4.1485  -47.2046    9.8704 H   0  0  0  0  0  0  0  0  0  0  0  0
  1  2  2  0  0  0  0
  2  3  1  0  0  0  0
  2  4  1  0  0  0  0
  4 11  1  0  0  0  0
  4 22  2  0  0  0  0
  5  6  2  0  0  0  0
  5 10  1  0  0  0  0
  5 22  1  0  0  0  0
  6  7  1  0  0  0  0
  7  8  1  0  0  0  0
  8  9  2  0  0  0  0
  9 10  1  0  0  0  0
 10 11  2  0  0  0  0
 11 12  1  0  0  0  0
 12 13  1  0  0  0  0
 13 14  1  0  0  0  0
 14 15  1  0  0  0  0
 15 16  1  0  0  0  0
 16 17  2  0  0  0  0
 16 21  1  0  0  0  0
 17 18  1  0  0  0  0
 18 19  2  0  0  0  0
 18 24  1  0  0  0  0
 19 20  1  0  0  0  0
 19 23  1  0  0  0  0
 20 21  2  0  0  0  0
  3 25  1  0  0  0  0
  6 26  1  0  0  0  0
  7 27  1  0  0  0  0
  7 28  1  0  0  0  0
  8 29  1  0  0  0  0
  9 30  1  0  0  0  0
 12 31  1  0  0  0  0
 12 32  1  0  0  0  0
 13 33  1  0  0  0  0
 13 34  1  0  0  0  0
 14 35  1  0  0  0  0
 14 36  1  0  0  0  0
 17 37  1  0  0  0  0
 20 38  1  0  0  0  0
 21 39  1  0  0  0  0
 24 40  1  0  0  0  0
 24 41  1  0  0  0  0
 24 42  1  0  0  0  0
M  END
> <r_user_dG.exp>
-8.81264617449463

$$$$
35
  -OEChem-05192314073D
 Structure written by MMmdl.
 42 44  0     0  0  0  0  0  0999 V2000
    3.5648  -47.8113    6.2796 O   0  0  0  0  0  0  0  0  0  0  0  0
    3.0310  -48.8242    6.8004 C   0  0  0  0  0  0  0  0  0  0  0  0
    3.6630  -49.5724    7.5811 O   0  0  0  0  0  0  0  0  0  0  0  0
    1.6183  -49.1519    6.4787 C   0  0  0  0  0  0  0  0  0  0  0  0
   -0.2217  -50.4968    6.5938 C   0  0  0  0  0  0  0  0  0  0  0  0
   -1.1816  -51.5029    6.8463 C   0  0  0  0  0  0  0  0  0  0  0  0
   -2.4635  -51.3995    6.2697 C   0  0  0  0  0  0  0  0  0  0  0  0
   -2.7770  -50.2885    5.4590 C   0  0  0  0  0  0  0  0  0  0  0  0
   -1.8231  -49.2850    5.2249 C   0  0  0  0  0  0  0  0  0  0  0  0
   -0.5246  -49.3637    5.7854 C   0  0  0  0  0  0  0  0  0  0  0  0
    0.6491  -48.5159    5.7434 C   0  0  0  0  0  0  0  0  0  0  0  0
    0.7691  -47.1896    5.0377 C   0  0  0  0  0  0  0  0  0  0  0  0
    0.8370  -45.9992    6.0190 C   0  0  0  0  0  0  0  0  0  0  0  0
   -0.4250  -45.8461    6.8783 C   0  0  0  0  0  0  0  0  0  0  0  0
   -1.5112  -45.4316    6.0568 O   0  0  0  0  0  0  0  0  0  0  0  0
   -2.7184  -45.2208    6.6770 C   0  0  0  0  0  0  0  0  0  0  0  0
   -3.0811  -45.7923    7.9227 C   0  0  0  0  0  0  0  0  0  0  0  0
   -4.3343  -45.5354    8.5139 C   0  0  0  0  0  0  0  0  0  0  0  0
   -5.2346  -44.6602    7.8591 C   0  0  0  0  0  0  0  0  0  0  0  0
   -4.8952  -44.1086    6.6071 C   0  0  0  0  0  0  0  0  0  0  0  0
   -3.6498  -44.3988    6.0191 C   0  0  0  0  0  0  0  0  0  0  0  0
    1.0877  -50.3279    6.9944 N   0  0  0  0  0  0  0  0  0  0  0  0
   -6.7603  -44.2478    8.5596 Cl  0  0  0  0  0  0  0  0  0  0  0  0
   -4.6696  -46.2368    9.8281 C   0  0  0  0  0  0  0  0  0  0  0  0
    4.5483  -49.2445    7.6874 H   0  0  0  0  0  0  0  0  0  0  0  0
   -0.7494  -52.4523    6.4972 H   0  0  0  0  0  0  0  0  0  0  0  0
   -1.3234  -51.5434    7.9364 H   0  0  0  0  0  0  0  0  0  0  0  0
   -3.2021  -52.1671    6.4477 H   0  0  0  0  0  0  0  0  0  0  0  0
   -3.7583  -50.2091    5.0149 H   0  0  0  0  0  0  0  0  0  0  0  0
   -2.0840  -48.4386    4.6069 H   0  0  0  0  0  0  0  0  0  0  0  0
    1.6847  -47.1964    4.4281 H   0  0  0  0  0  0  0  0  0  0  0  0
   -0.1057  -47.0579    4.3840 H   0  0  0  0  0  0  0  0  0  0  0  0
    1.6982  -46.1467    6.6872 H   0  0  0  0  0  0  0  0  0  0  0  0
    0.9776  -45.0758    5.4380 H   0  0  0  0  0  0  0  0  0  0  0  0
   -0.6679  -46.8106    7.3481 H   0  0  0  0  0  0  0  0  0  0  0  0
   -0.2475  -45.0922    7.6594 H   0  0  0  0  0  0  0  0  0  0  0  0
   -2.3810  -46.4394    8.4302 H   0  0  0  0  0  0  0  0  0  0  0  0
   -5.5932  -43.4611    6.0973 H   0  0  0  0  0  0  0  0  0  0  0  0
   -3.4070  -43.9852    5.0514 H   0  0  0  0  0  0  0  0  0  0  0  0
   -4.3466  -45.6095   10.6720 H   0  0  0  0  0  0  0  0  0  0  0  0
   -5.7554  -46.4020    9.8888 H   0  0  0  0  0  0  0  0  0  0  0  0
   -4.1485  -47.2046    9.8704 H   0  0  0  0  0  0  0  0  0  0  0  0
  1  2  2  0  0  0  0
  2  3  1  0  0  0  0
  2  4  1  0  0  0  0
  4 11  2  0  0  0  0
  4 22  1  0  0  0  0
  5  6  1  0  0  0  0
  5 10  1  0  0  0  0
  5 22  2  0  0  0  0
  6  7  1  0  0  0  0
  7  8  2  0  0  0  0
  8  9  1  0  0  0  0
  9 10  2  0  0  0  0
 10 11  1  0  0  0  0
 11 12  1  0  0  0  0
 12 13  1  0  0  0  0
 13 14  1  0  0  0  0
 14 15  1  0  0  0  0
 15 16  1  0  0  0  0
 16 17  2  0  0  0  0
 16 21  1  0  0  0  0
 17 18  1  0  0  0  0
 18 19  2  0  0  0  0
 18 24  1  0  0  0  0
 19 20  1  0  0  0  0
 19 23  1  0  0  0  0
 20 21  2  0  0  0  0
  3 25  1  0  0  0  0
  6 26  1  0  0  0  0
  6 27  1  0  0  0  0
  7 28  1  0  0  0  0
  8 29  1  0  0  0  0
  9 30  1  0  0  0  0
 12 31  1  0  0  0  0
 12 32  1  0  0  0  0
 13 33  1  0  0  0  0
 13 34  1  0  0  0  0
 14 35  1  0  0  0  0
 14 36  1  0  0  0  0
 17 37  1  0  0  0  0
 20 38  1  0  0  0  0
 21 39  1  0  0  0  0
 24 40  1  0  0  0  0
 24 41  1  0  0  0  0
 24 42  1  0  0  0  0
M  END
> <r_user_dG.exp>
-8.81264617449463

$$$$
35
  -OEChem-05192314073D
 Structure written by MMmdl.
 42 44  0     0  0  0  0  0  0999 V2000
    3.5648  -47.8113    6.2796 O   0  0  0  0  0  0  0  0  0  0  0  0
    3.0310  -48.8242    6.8004 C   0  0  0  0  0  0  0  0  0  0  0  0
    3.6630  -49.5724    7.5811 O   0  0  0  0  0  0  0  0  0  0  0  0
    1.6183  -49.1519    6.4787 C   0  0  0  0  0  0  0  0  0  0  0  0
   -0.2217  -50.4968    6.5938 C   0  0  0  0  0  0  0  0  0  0  0  0
   -1.1816  -51.5029    6.8463 C   0  0  0  0  0  0  0  0  0  0  0  0
   -2.4635  -51.3995    6.2697 C   0  0  0  0  0  0  0  0  0  0  0  0
   -2.7770  -50.2885    5.4590 C   0  0  0  0  0  0  0  0  0  0  0  0
   -1.8231  -49.2850    5.2249 C   0  0  0  0  0  0  0  0  0  0  0  0
   -0.5246  -49.3637    5.7854 C   0  0  0  0  0  0  0  0  0  0  0  0
    0.6491  -48.5159    5.7434 C   0  0  0  0  0  0  0  0  0  0  0  0
    0.7691  -47.1896    5.0377 C   0  0  0  0  0  0  0  0  0  0  0  0
    0.8370  -45.9992    6.0190 C   0  0  0  0  0  0  0  0  0  0  0  0
   -0.4250  -45.8461    6.8783 C   0  0  0  0  0  0  0  0  0  0  0  0
   -1.5112  -45.4316    6.0568 O   0  0  0  0  0  0  0  0  0  0  0  0
   -2.7184  -45.2208    6.6770 C   0  0  0  0  0  0  0  0  0  0  0  0
   -3.0811  -45.7923    7.9227 C   0  0  0  0  0  0  0  0  0  0  0  0
   -4.3343  -45.5354    8.5139 C   0  0  0  0  0  0  0  0  0  0  0  0
   -5.2346  -44.6602    7.8591 C   0  0  0  0  0  0  0  0  0  0  0  0
   -4.8952  -44.1086    6.6071 C   0  0  0  0  0  0  0  0  0  0  0  0
   -3.6498  -44.3988    6.0191 C   0  0  0  0  0  0  0  0  0  0  0  0
    1.0877  -50.3279    6.9944 N   0  0  0  0  0  0  0  0  0  0  0  0
   -6.7603  -44.2478    8.5596 Cl  0  0  0  0  0  0  0  0  0  0  0  0
   -4.6696  -46.2368    9.8281 C   0  0  0  0  0  0  0  0  0  0  0  0
    4.5483  -49.2445    7.6874 H   0  0  0  0  0  0  0  0  0  0  0  0
   -0.9347  -52.3446    7.4763 H   0  0  0  0  0  0  0  0  0  0  0  0
   -3.2021  -52.1671    6.4477 H   0  0  0  0  0  0  0  0  0  0  0  0
   -3.7583  -50.2091    5.0149 H   0  0  0  0  0  0  0  0  0  0  0  0
   -1.6895  -49.2297    4.1344 H   0  0  0  0  0  0  0  0  0  0  0  0
   -2.2635  -48.3449    5.5885 H   0  0  0  0  0  0  0  0  0  0  0  0
    1.6847  -47.1964    4.4281 H   0  0  0  0  0  0  0  0  0  0  0  0
   -0.1057  -47.0579    4.3840 H   0  0  0  0  0  0  0  0  0  0  0  0
    1.6982  -46.1467    6.6872 H   0  0  0  0  0  0  0  0  0  0  0  0
    0.9776  -45.0758    5.4380 H   0  0  0  0  0  0  0  0  0  0  0  0
   -0.6679  -46.8106    7.3481 H   0  0  0  0  0  0  0  0  0  0  0  0
   -0.2475  -45.0922    7.6594 H   0  0  0  0  0  0  0  0  0  0  0  0
   -2.3810  -46.4394    8.4302 H   0  0  0  0  0  0  0  0  0  0  0  0
   -5.5932  -43.4611    6.0973 H   0  0  0  0  0  0  0  0  0  0  0  0
   -3.4070  -43.9852    5.0514 H   0  0  0  0  0  0  0  0  0  0  0  0
   -4.3466  -45.6095   10.6720 H   0  0  0  0  0  0  0  0  0  0  0  0
   -5.7554  -46.4020    9.8888 H   0  0  0  0  0  0  0  0  0  0  0  0
   -4.1485  -47.2046    9.8704 H   0  0  0  0  0  0  0  0  0  0  0  0
  1  2  2  0  0  0  0
  2  3  1  0  0  0  0
  2  4  1  0  0  0  0
  4 11  1  0  0  0  0
  4 22  2  0  0  0  0
  5  6  2  0  0  0  0
  5 10  1  0  0  0  0
  5 22  1  0  0  0  0
  6  7  1  0  0  0  0
  7  8  2  0  0  0  0
  8  9  1  0  0  0  0
  9 10  1  0  0  0  0
 10 11  2  0  0  0  0
 11 12  1  0  0  0  0
 12 13  1  0  0  0  0
 13 14  1  0  0  0  0
 14 15  1  0  0  0  0
 15 16  1  0  0  0  0
 16 17  2  0  0  0  0
 16 21  1  0  0  0  0
 17 18  1  0  0  0  0
 18 19  2  0  0  0  0
 18 24  1  0  0  0  0
 19 20  1  0  0  0  0
 19 23  1  0  0  0  0
 20 21  2  0  0  0  0
  3 25  1  0  0  0  0
  6 26  1  0  0  0  0
  7 27  1  0  0  0  0
  8 28  1  0  0  0  0
  9 29  1  0  0  0  0
  9 30  1  0  0  0  0
 12 31  1  0  0  0  0
 12 32  1  0  0  0  0
 13 33  1  0  0  0  0
 13 34  1  0  0  0  0
 14 35  1  0  0  0  0
 14 36  1  0  0  0  0
 17 37  1  0  0  0  0
 20 38  1  0  0  0  0
 21 39  1  0  0  0  0
 24 40  1  0  0  0  0
 24 41  1  0  0  0  0
 24 42  1  0  0  0  0
M  END
> <r_user_dG.exp>
-8.81264617449463

$$$$
35
  -OEChem-05192314073D
 Structure written by MMmdl.
 42 44  0     0  0  0  0  0  0999 V2000
    3.5648  -47.8113    6.2796 O   0  0  0  0  0  0  0  0  0  0  0  0
    3.0310  -48.8242    6.8004 C   0  0  0  0  0  0  0  0  0  0  0  0
    3.6630  -49.5724    7.5811 O   0  0  0  0  0  0  0  0  0  0  0  0
    1.6183  -49.1519    6.4787 C   0  0  0  0  0  0  0  0  0  0  0  0
   -0.2217  -50.4968    6.5938 C   0  0  0  0  0  0  0  0  0  0  0  0
   -1.1816  -51.5029    6.8463 C   0  0  0  0  0  0  0  0  0  0  0  0
   -2.4635  -51.3995    6.2697 C   0  0  0  0  0  0  0  0  0  0  0  0
   -2.7770  -50.2885    5.4590 C   0  0  0  0  0  0  0  0  0  0  0  0
   -1.8231  -49.2850    5.2249 C   0  0  0  0  0  0  0  0  0  0  0  0
   -0.5246  -49.3637    5.7854 C   0  0  0  0  0  0  0  0  0  0  0  0
    0.6491  -48.5159    5.7434 C   0  0  0  0  0  0  0  0  0  0  0  0
    0.7691  -47.1896    5.0377 C   0  0  0  0  0  0  0  0  0  0  0  0
    0.8370  -45.9992    6.0190 C   0  0  0  0  0  0  0  0  0  0  0  0
   -0.4250  -45.8461    6.8783 C   0  0  0  0  0  0  0  0  0  0  0  0
   -1.5112  -45.4316    6.0568 O   0  0  0  0  0  0  0  0  0  0  0  0
   -2.7184  -45.2208    6.6770 C   0  0  0  0  0  0  0  0  0  0  0  0
   -3.0811  -45.7923    7.9227 C   0  0  0  0  0  0  0  0  0  0  0  0
   -4.3343  -45.5354    8.5139 C   0  0  0  0  0  0  0  0  0  0  0  0
   -5.2346  -44.6602    7.8591 C   0  0  0  0  0  0  0  0  0  0  0  0
   -4.8952  -44.1086    6.6071 C   0  0  0  0  0  0  0  0  0  0  0  0
   -3.6498  -44.3988    6.0191 C   0  0  0  0  0  0  0  0  0  0  0  0
    1.0877  -50.3279    6.9944 N   0  0  0  0  0  0  0  0  0  0  0  0
   -6.7603  -44.2478    8.5596 Cl  0  0  0  0  0  0  0  0  0  0  0  0
   -4.6696  -46.2368    9.8281 C   0  0  0  0  0  0  0  0  0  0  0  0
    2.9340  -47.3722    5.7212 H   0  0  0  0  0  0  0  0  0  0  0  0
    3.0978  -50.2791    7.8701 H   0  0  0  0  0  0  0  0  0  0  0  0
   -0.9347  -52.3446    7.4763 H   0  0  0  0  0  0  0  0  0  0  0  0
   -3.2021  -52.1671    6.4477 H   0  0  0  0  0  0  0  0  0  0  0  0
   -3.7583  -50.2091    5.0149 H   0  0  0  0  0  0  0  0  0  0  0  0
   -2.0840  -48.4386    4.6069 H   0  0  0  0  0  0  0  0  0  0  0  0
    1.6847  -47.1964    4.4281 H   0  0  0  0  0  0  0  0  0  0  0  0
   -0.1057  -47.0579    4.3840 H   0  0  0  0  0  0  0  0  0  0  0  0
    1.6982  -46.1467    6.6872 H   0  0  0  0  0  0  0  0  0  0  0  0
    0.9776  -45.0758    5.4380 H   0  0  0  0  0  0  0  0  0  0  0  0
   -0.6679  -46.8106    7.3481 H   0  0  0  0  0  0  0  0  0  0  0  0
   -0.2475  -45.0922    7.6594 H   0  0  0  0  0  0  0  0  0  0  0  0
   -2.3810  -46.4394    8.4302 H   0  0  0  0  0  0  0  0  0  0  0  0
   -5.5932  -43.4611    6.0973 H   0  0  0  0  0  0  0  0  0  0  0  0
   -3.4070  -43.9852    5.0514 H   0  0  0  0  0  0  0  0  0  0  0  0
   -4.3466  -45.6095   10.6720 H   0  0  0  0  0  0  0  0  0  0  0  0
   -5.7554  -46.4020    9.8888 H   0  0  0  0  0  0  0  0  0  0  0  0
   -4.1485  -47.2046    9.8704 H   0  0  0  0  0  0  0  0  0  0  0  0
  1  2  1  0  0  0  0
  2  3  1  0  0  0  0
  2  4  2  0  0  0  0
  4 11  1  0  0  0  0
  4 22  1  0  0  0  0
  5  6  1  0  0  0  0
  5 10  1  0  0  0  0
  5 22  2  0  0  0  0
  6  7  2  0  0  0  0
  7  8  1  0  0  0  0
  8  9  2  0  0  0  0
  9 10  1  0  0  0  0
 10 11  2  0  0  0  0
 11 12  1  0  0  0  0
 12 13  1  0  0  0  0
 13 14  1  0  0  0  0
 14 15  1  0  0  0  0
 15 16  1  0  0  0  0
 16 17  2  0  0  0  0
 16 21  1  0  0  0  0
 17 18  1  0  0  0  0
 18 19  2  0  0  0  0
 18 24  1  0  0  0  0
 19 20  1  0  0  0  0
 19 23  1  0  0  0  0
 20 21  2  0  0  0  0
  1 25  1  0  0  0  0
  3 26  1  0  0  0  0
  6 27  1  0  0  0  0
  7 28  1  0  0  0  0
  8 29  1  0  0  0  0
  9 30  1  0  0  0  0
 12 31  1  0  0  0  0
 12 32  1  0  0  0  0
 13 33  1  0  0  0  0
 13 34  1  0  0  0  0
 14 35  1  0  0  0  0
 14 36  1  0  0  0  0
 17 37  1  0  0  0  0
 20 38  1  0  0  0  0
 21 39  1  0  0  0  0
 24 40  1  0  0  0  0
 24 41  1  0  0  0  0
 24 42  1  0  0  0  0
M  END
> <r_user_dG.exp>
-8.81264617449463

$$$$
