26
  -OEChem-05192314073D
 Structure written by MMmdl.
 44 47  0     0  0  0  0  0  0999 V2000
    3.8290  -49.9082    7.3567 O   0  0  0  0  0  0  0  0  0  0  0  0
    3.1153  -49.0416    6.8012 C   0  0  0  0  0  0  0  0  0  0  0  0
    3.5513  -47.8977    6.5562 O   0  0  0  0  0  0  0  0  0  0  0  0
    1.7057  -49.3580    6.4403 C   0  0  0  0  0  0  0  0  0  0  0  0
   -0.1076  -50.6487    6.3793 C   0  0  0  0  0  0  0  0  0  0  0  0
   -1.0211  -51.7084    6.5402 C   0  0  0  0  0  0  0  0  0  0  0  0
   -2.3348  -51.5531    6.0492 C   0  0  0  0  0  0  0  0  0  0  0  0
   -2.6993  -50.3586    5.3936 C   0  0  0  0  0  0  0  0  0  0  0  0
   -1.7635  -49.3099    5.2420 C   0  0  0  0  0  0  0  0  0  0  0  0
   -0.4423  -49.4338    5.7433 C   0  0  0  0  0  0  0  0  0  0  0  0
    0.7328  -48.6071    5.8015 C   0  0  0  0  0  0  0  0  0  0  0  0
    0.8592  -47.2049    5.2675 C   0  0  0  0  0  0  0  0  0  0  0  0
    0.9701  -46.1519    6.3924 C   0  0  0  0  0  0  0  0  0  0  0  0
   -0.0852  -45.0395    6.3276 C   0  0  0  0  0  0  0  0  0  0  0  0
   -1.4118  -45.4805    6.0441 O   0  0  0  0  0  0  0  0  0  0  0  0
   -2.2386  -45.8040    7.0949 C   0  0  0  0  0  0  0  0  0  0  0  0
   -4.0387  -46.5572    9.1587 C   0  0  0  0  0  0  0  0  0  0  0  0
   -2.7241  -47.0517    9.1502 C   0  0  0  0  0  0  0  0  0  0  0  0
   -1.8288  -46.6752    8.1339 C   0  0  0  0  0  0  0  0  0  0  0  0
   -4.4644  -45.6869    8.1312 C   0  0  0  0  0  0  0  0  0  0  0  0
   -3.5686  -45.3157    7.0918 C   0  0  0  0  0  0  0  0  0  0  0  0
   -4.0196  -44.4491    6.0697 C   0  0  0  0  0  0  0  0  0  0  0  0
   -5.3473  -43.9766    6.0646 C   0  0  0  0  0  0  0  0  0  0  0  0
   -6.2357  -44.3575    7.0895 C   0  0  0  0  0  0  0  0  0  0  0  0
   -5.7910  -45.2055    8.1244 C   0  0  0  0  0  0  0  0  0  0  0  0
    1.2056  -50.5983    6.7955 O   0  0  0  0  0  0  0  0  0  0  0  0
    4.4516  -47.8314    6.8520 H   0  0  0  0  0  0  0  0  0  0  0  0
   -0.7217  -52.6230    7.0303 H   0  0  0  0  0  0  0  0  0  0  0  0
   -3.0580  -52.3453    6.1748 H   0  0  0  0  0  0  0  0  0  0  0  0
   -3.7004  -50.2444    5.0047 H   0  0  0  0  0  0  0  0  0  0  0  0
   -2.0586  -48.4017    4.7375 H   0  0  0  0  0  0  0  0  0  0  0  0
    1.7603  -47.1464    4.6393 H   0  0  0  0  0  0  0  0  0  0  0  0
   -0.0280  -46.9781    4.6580 H   0  0  0  0  0  0  0  0  0  0  0  0
    0.8664  -46.6683    7.3581 H   0  0  0  0  0  0  0  0  0  0  0  0
    1.9647  -45.6862    6.3305 H   0  0  0  0  0  0  0  0  0  0  0  0
   -0.0976  -44.5244    7.2994 H   0  0  0  0  0  0  0  0  0  0  0  0
    0.2140  -44.3312    5.5410 H   0  0  0  0  0  0  0  0  0  0  0  0
   -4.7204  -46.8410    9.9468 H   0  0  0  0  0  0  0  0  0  0  0  0
   -2.3991  -47.7254    9.9293 H   0  0  0  0  0  0  0  0  0  0  0  0
   -0.8176  -47.0543    8.1454 H   0  0  0  0  0  0  0  0  0  0  0  0
   -3.3407  -44.1466    5.2861 H   0  0  0  0  0  0  0  0  0  0  0  0
   -5.6840  -43.3220    5.2744 H   0  0  0  0  0  0  0  0  0  0  0  0
   -7.2551  -44.0007    7.0825 H   0  0  0  0  0  0  0  0  0  0  0  0
   -6.4691  -45.4881    8.9160 H   0  0  0  0  0  0  0  0  0  0  0  0
  1  2  2  0  0  0  0
  2  3  1  0  0  0  0
  2  4  1  0  0  0  0
  4 11  2  0  0  0  0
  4 26  1  0  0  0  0
  5  6  2  0  0  0  0
  5 10  1  0  0  0  0
  5 26  1  0  0  0  0
  6  7  1  0  0  0  0
  7  8  2  0  0  0  0
  8  9  1  0  0  0  0
  9 10  2  0  0  0  0
 10 11  1  0  0  0  0
 11 12  1  0  0  0  0
 12 13  1  0  0  0  0
 13 14  1  0  0  0  0
 14 15  1  0  0  0  0
 15 16  1  0  0  0  0
 16 19  2  0  0  0  0
 16 21  1  0  0  0  0
 17 18  2  0  0  0  0
 17 20  1  0  0  0  0
 18 19  1  0  0  0  0
 20 21  2  0  0  0  0
 20 25  1  0  0  0  0
 21 22  1  0  0  0  0
 22 23  2  0  0  0  0
 23 24  1  0  0  0  0
 24 25  2  0  0  0  0
  3 27  1  0  0  0  0
  6 28  1  0  0  0  0
  7 29  1  0  0  0  0
  8 30  1  0  0  0  0
  9 31  1  0  0  0  0
 12 32  1  0  0  0  0
 12 33  1  0  0  0  0
 13 34  1  0  0  0  0
 13 35  1  0  0  0  0
 14 36  1  0  0  0  0
 14 37  1  0  0  0  0
 17 38  1  0  0  0  0
 18 39  1  0  0  0  0
 19 40  1  0  0  0  0
 22 41  1  0  0  0  0
 23 42  1  0  0  0  0
 24 43  1  0  0  0  0
 25 44  1  0  0  0  0
M  END
> <r_user_dG.exp>
-8.23584030891924

$$$$
