57
  -OEChem-05192314073D
 Structure written by MMmdl.
 48 51  0     0  0  0  0  0  0999 V2000
    3.5644  -47.6678    5.9794 O   0  0  0  0  0  0  0  0  0  0  0  0
    3.1061  -48.6748    6.5602 C   0  0  0  0  0  0  0  0  0  0  0  0
    3.8451  -49.2908    7.3808 O   0  0  0  0  0  0  0  0  0  0  0  0
    1.6967  -49.0920    6.3186 C   0  0  0  0  0  0  0  0  0  0  0  0
   -0.1535  -50.4335    6.3918 C   0  0  0  0  0  0  0  0  0  0  0  0
   -1.1205  -51.4551    6.5735 C   0  0  0  0  0  0  0  0  0  0  0  0
   -2.4473  -51.2528    6.1514 C   0  0  0  0  0  0  0  0  0  0  0  0
   -2.8077  -50.0288    5.5584 C   0  0  0  0  0  0  0  0  0  0  0  0
   -1.8532  -49.0185    5.3763 C   0  0  0  0  0  0  0  0  0  0  0  0
   -0.4989  -49.1915    5.7783 C   0  0  0  0  0  0  0  0  0  0  0  0
    0.6696  -48.3728    5.7223 C   0  0  0  0  0  0  0  0  0  0  0  0
    0.7299  -46.9821    5.1515 C   0  0  0  0  0  0  0  0  0  0  0  0
    0.8228  -45.8723    6.2201 C   0  0  0  0  0  0  0  0  0  0  0  0
   -0.3002  -45.9030    7.2643 C   0  0  0  0  0  0  0  0  0  0  0  0
   -1.5339  -45.4785    6.6854 O   0  0  0  0  0  0  0  0  0  0  0  0
   -2.6539  -45.4735    7.4912 C   0  0  0  0  0  0  0  0  0  0  0  0
   -5.0024  -45.4171    9.0952 C   0  0  0  0  0  0  0  0  0  0  0  0
   -3.8541  -46.0855    9.5449 C   0  0  0  0  0  0  0  0  0  0  0  0
   -2.6939  -46.1087    8.7532 C   0  0  0  0  0  0  0  0  0  0  0  0
   -4.9934  -44.7821    7.8391 C   0  0  0  0  0  0  0  0  0  0  0  0
   -3.8237  -44.8117    7.0307 C   0  0  0  0  0  0  0  0  0  0  0  0
   -3.8421  -44.1736    5.7733 C   0  0  0  0  0  0  0  0  0  0  0  0
   -5.0054  -43.5186    5.3209 C   0  0  0  0  0  0  0  0  0  0  0  0
   -6.1590  -43.4918    6.1266 C   0  0  0  0  0  0  0  0  0  0  0  0
   -6.1539  -44.1210    7.3843 C   0  0  0  0  0  0  0  0  0  0  0  0
    1.9363  -51.4455    7.3369 C   0  0  0  0  0  0  0  0  0  0  0  0
    1.1956  -50.3552    6.7086 N   0  0  0  0  0  0  0  0  0  0  0  0
    4.6910  -48.8613    7.4300 H   0  0  0  0  0  0  0  0  0  0  0  0
   -0.8381  -52.3891    7.0363 H   0  0  0  0  0  0  0  0  0  0  0  0
   -3.1841  -52.0317    6.2817 H   0  0  0  0  0  0  0  0  0  0  0  0
   -3.8272  -49.8665    5.2412 H   0  0  0  0  0  0  0  0  0  0  0  0
   -2.1526  -48.0865    4.9200 H   0  0  0  0  0  0  0  0  0  0  0  0
    1.6146  -46.9123    4.5015 H   0  0  0  0  0  0  0  0  0  0  0  0
   -0.1782  -46.8130    4.5542 H   0  0  0  0  0  0  0  0  0  0  0  0
    1.7836  -45.9795    6.7449 H   0  0  0  0  0  0  0  0  0  0  0  0
    0.7908  -44.8988    5.7089 H   0  0  0  0  0  0  0  0  0  0  0  0
   -0.4130  -46.9291    7.6443 H   0  0  0  0  0  0  0  0  0  0  0  0
   -0.0401  -45.2307    8.0952 H   0  0  0  0  0  0  0  0  0  0  0  0
   -5.8898  -45.3898    9.7102 H   0  0  0  0  0  0  0  0  0  0  0  0
   -3.8620  -46.5839   10.5030 H   0  0  0  0  0  0  0  0  0  0  0  0
   -1.8155  -46.6218    9.1159 H   0  0  0  0  0  0  0  0  0  0  0  0
   -2.9585  -44.1868    5.1524 H   0  0  0  0  0  0  0  0  0  0  0  0
   -5.0114  -43.0366    4.3545 H   0  0  0  0  0  0  0  0  0  0  0  0
   -7.0486  -42.9878    5.7788 H   0  0  0  0  0  0  0  0  0  0  0  0
   -7.0391  -44.0981    8.0026 H   0  0  0  0  0  0  0  0  0  0  0  0
    1.2598  -52.2945    7.5145 H   0  0  0  0  0  0  0  0  0  0  0  0
    2.7553  -51.7619    6.6742 H   0  0  0  0  0  0  0  0  0  0  0  0
    2.3522  -51.1015    8.2954 H   0  0  0  0  0  0  0  0  0  0  0  0
  1  2  2  0  0  0  0
  2  3  1  0  0  0  0
  2  4  1  0  0  0  0
  4 11  2  0  0  0  0
  4 27  1  0  0  0  0
  5  6  2  0  0  0  0
  5 10  1  0  0  0  0
  5 27  1  0  0  0  0
  6  7  1  0  0  0  0
  7  8  2  0  0  0  0
  8  9  1  0  0  0  0
  9 10  2  0  0  0  0
 10 11  1  0  0  0  0
 11 12  1  0  0  0  0
 12 13  1  0  0  0  0
 13 14  1  0  0  0  0
 14 15  1  0  0  0  0
 15 16  1  0  0  0  0
 16 19  2  0  0  0  0
 16 21  1  0  0  0  0
 17 18  2  0  0  0  0
 17 20  1  0  0  0  0
 18 19  1  0  0  0  0
 20 21  2  0  0  0  0
 20 25  1  0  0  0  0
 21 22  1  0  0  0  0
 22 23  2  0  0  0  0
 23 24  1  0  0  0  0
 24 25  2  0  0  0  0
 26 27  1  0  0  0  0
  3 28  1  0  0  0  0
  6 29  1  0  0  0  0
  7 30  1  0  0  0  0
  8 31  1  0  0  0  0
  9 32  1  0  0  0  0
 12 33  1  0  0  0  0
 12 34  1  0  0  0  0
 13 35  1  0  0  0  0
 13 36  1  0  0  0  0
 14 37  1  0  0  0  0
 14 38  1  0  0  0  0
 17 39  1  0  0  0  0
 18 40  1  0  0  0  0
 19 41  1  0  0  0  0
 22 42  1  0  0  0  0
 23 43  1  0  0  0  0
 24 44  1  0  0  0  0
 25 45  1  0  0  0  0
 26 46  1  0  0  0  0
 26 47  1  0  0  0  0
 26 48  1  0  0  0  0
M  END
> <r_user_dG.exp>
-9.03887132268158

$$$$
