62
  -OEChem-05192314073D
 Structure written by MMmdl.
 44 47  0     0  0  0  0  0  0999 V2000
    3.5438  -47.5772    5.7905 O   0  0  0  0  0  0  0  0  0  0  0  0
    3.1835  -48.5307    6.5190 C   0  0  0  0  0  0  0  0  0  0  0  0
    3.9583  -48.9716    7.3983 O   0  0  0  0  0  0  0  0  0  0  0  0
    1.8205  -49.1108    6.3417 C   0  0  0  0  0  0  0  0  0  0  0  0
    1.6677  -50.7691    6.8730 S   0  0  0  0  0  0  0  0  0  0  0  0
   -0.0534  -50.7822    6.5135 C   0  0  0  0  0  0  0  0  0  0  0  0
   -0.9252  -51.8582    6.7331 C   0  0  0  0  0  0  0  0  0  0  0  0
   -2.2931  -51.7406    6.4181 C   0  0  0  0  0  0  0  0  0  0  0  0
   -2.7610  -50.5248    5.8913 C   0  0  0  0  0  0  0  0  0  0  0  0
   -1.8910  -49.4330    5.6876 C   0  0  0  0  0  0  0  0  0  0  0  0
   -0.4943  -49.5299    5.9753 C   0  0  0  0  0  0  0  0  0  0  0  0
    0.6271  -48.5701    5.8889 C   0  0  0  0  0  0  0  0  0  0  0  0
    0.4730  -47.1115    5.5285 C   0  0  0  0  0  0  0  0  0  0  0  0
    0.1924  -46.3223    6.8187 C   0  0  0  0  0  0  0  0  0  0  0  0
   -0.5189  -44.9864    6.6239 C   0  0  0  0  0  0  0  0  0  0  0  0
   -1.8770  -45.1797    6.2416 O   0  0  0  0  0  0  0  0  0  0  0  0
   -2.8344  -45.2637    7.2315 C   0  0  0  0  0  0  0  0  0  0  0  0
   -4.9255  -45.4944    9.1209 C   0  0  0  0  0  0  0  0  0  0  0  0
   -3.6260  -45.9830    9.4207 C   0  0  0  0  0  0  0  0  0  0  0  0
   -2.5867  -45.7933    8.5093 C   0  0  0  0  0  0  0  0  0  0  0  0
   -2.6124  -47.9686    5.0985 Cl  0  0  0  0  0  0  0  0  0  0  0  0
   -5.1778  -44.8765    7.8875 C   0  0  0  0  0  0  0  0  0  0  0  0
   -4.1442  -44.7749    6.9318 C   0  0  0  0  0  0  0  0  0  0  0  0
   -4.4214  -44.1639    5.6900 C   0  0  0  0  0  0  0  0  0  0  0  0
   -5.7020  -43.6469    5.4010 C   0  0  0  0  0  0  0  0  0  0  0  0
   -6.7289  -43.7443    6.3621 C   0  0  0  0  0  0  0  0  0  0  0  0
   -6.4652  -44.3618    7.6033 C   0  0  0  0  0  0  0  0  0  0  0  0
    4.7701  -48.4784    7.3819 H   0  0  0  0  0  0  0  0  0  0  0  0
   -0.5461  -52.7815    7.1457 H   0  0  0  0  0  0  0  0  0  0  0  0
   -2.9685  -52.5680    6.5782 H   0  0  0  0  0  0  0  0  0  0  0  0
   -3.8060  -50.4243    5.6377 H   0  0  0  0  0  0  0  0  0  0  0  0
    1.3986  -46.7439    5.0615 H   0  0  0  0  0  0  0  0  0  0  0  0
   -0.3655  -46.9882    4.8273 H   0  0  0  0  0  0  0  0  0  0  0  0
   -0.4337  -46.9488    7.4710 H   0  0  0  0  0  0  0  0  0  0  0  0
    1.1552  -46.1258    7.3132 H   0  0  0  0  0  0  0  0  0  0  0  0
   -0.4882  -44.4221    7.5676 H   0  0  0  0  0  0  0  0  0  0  0  0
   -0.0023  -44.4155    5.8383 H   0  0  0  0  0  0  0  0  0  0  0  0
   -5.7208  -45.5989    9.8441 H   0  0  0  0  0  0  0  0  0  0  0  0
   -3.4429  -46.4997   10.3512 H   0  0  0  0  0  0  0  0  0  0  0  0
   -1.5777  -46.0572    8.7898 H   0  0  0  0  0  0  0  0  0  0  0  0
   -3.6398  -44.0909    4.9483 H   0  0  0  0  0  0  0  0  0  0  0  0
   -5.8949  -43.1784    4.4472 H   0  0  0  0  0  0  0  0  0  0  0  0
   -7.7112  -43.3488    6.1498 H   0  0  0  0  0  0  0  0  0  0  0  0
   -7.2503  -44.4421    8.3406 H   0  0  0  0  0  0  0  0  0  0  0  0
  1  2  2  0  0  0  0
  2  3  1  0  0  0  0
  2  4  1  0  0  0  0
  4  5  1  0  0  0  0
  4 12  2  0  0  0  0
  5  6  1  0  0  0  0
  6  7  2  0  0  0  0
  6 11  1  0  0  0  0
  7  8  1  0  0  0  0
  8  9  2  0  0  0  0
  9 10  1  0  0  0  0
 10 11  2  0  0  0  0
 10 21  1  0  0  0  0
 11 12  1  0  0  0  0
 12 13  1  0  0  0  0
 13 14  1  0  0  0  0
 14 15  1  0  0  0  0
 15 16  1  0  0  0  0
 16 17  1  0  0  0  0
 17 20  2  0  0  0  0
 17 23  1  0  0  0  0
 18 19  2  0  0  0  0
 18 22  1  0  0  0  0
 19 20  1  0  0  0  0
 22 23  2  0  0  0  0
 22 27  1  0  0  0  0
 23 24  1  0  0  0  0
 24 25  2  0  0  0  0
 25 26  1  0  0  0  0
 26 27  2  0  0  0  0
  3 28  1  0  0  0  0
  7 29  1  0  0  0  0
  8 30  1  0  0  0  0
  9 31  1  0  0  0  0
 13 32  1  0  0  0  0
 13 33  1  0  0  0  0
 14 34  1  0  0  0  0
 14 35  1  0  0  0  0
 15 36  1  0  0  0  0
 15 37  1  0  0  0  0
 18 38  1  0  0  0  0
 19 39  1  0  0  0  0
 20 40  1  0  0  0  0
 24 41  1  0  0  0  0
 25 42  1  0  0  0  0
 26 43  1  0  0  0  0
 27 44  1  0  0  0  0
M  END
> <r_user_dG.exp>
-7.95565704541698

$$$$
