50
  -OEChem-05192314073D
 Structure written by MMmdl.
 45 47  0     0  0  0  0  0  0999 V2000
    3.7793  -49.8551    7.0486 O   0  0  0  0  0  0  0  0  0  0  0  0
    2.9869  -48.9536    6.6755 C   0  0  0  0  0  0  0  0  0  0  0  0
    3.3674  -47.7712    6.5283 O   0  0  0  0  0  0  0  0  0  0  0  0
    1.5743  -49.3351    6.4116 C   0  0  0  0  0  0  0  0  0  0  0  0
   -0.1186  -50.8654    6.3660 C   0  0  0  0  0  0  0  0  0  0  0  0
   -0.9353  -52.0079    6.4726 C   0  0  0  0  0  0  0  0  0  0  0  0
   -2.2983  -51.9243    6.1497 C   0  0  0  0  0  0  0  0  0  0  0  0
   -2.8394  -50.6992    5.7155 C   0  0  0  0  0  0  0  0  0  0  0  0
   -2.0219  -49.5504    5.6229 C   0  0  0  0  0  0  0  0  0  0  0  0
   -0.6359  -49.6058    5.9539 C   0  0  0  0  0  0  0  0  0  0  0  0
    0.4437  -48.6413    6.0163 C   0  0  0  0  0  0  0  0  0  0  0  0
    0.3299  -47.1710    5.7539 C   0  0  0  0  0  0  0  0  0  0  0  0
   -0.1581  -46.4326    7.0125 C   0  0  0  0  0  0  0  0  0  0  0  0
   -0.6377  -45.0064    6.7266 C   0  0  0  0  0  0  0  0  0  0  0  0
   -1.8216  -45.0466    5.9392 O   0  0  0  0  0  0  0  0  0  0  0  0
   -3.0478  -45.1371    6.5648 C   0  0  0  0  0  0  0  0  0  0  0  0
   -3.2350  -45.4603    7.9288 C   0  0  0  0  0  0  0  0  0  0  0  0
   -4.5322  -45.6029    8.4606 C   0  0  0  0  0  0  0  0  0  0  0  0
   -4.6965  -46.0234    9.9032 C   0  0  0  0  0  0  0  0  0  0  0  0
   -5.6613  -45.3986    7.6394 C   0  0  0  0  0  0  0  0  0  0  0  0
   -7.2509  -45.6153    8.2746 Cl  0  0  0  0  0  0  0  0  0  0  0  0
   -5.4842  -45.0381    6.2876 C   0  0  0  0  0  0  0  0  0  0  0  0
   -6.6772  -44.8280    5.3721 C   0  0  0  0  0  0  0  0  0  0  0  0
   -4.1811  -44.9222    5.7571 C   0  0  0  0  0  0  0  0  0  0  0  0
   -2.7591  -48.0672    5.1129 Cl  0  0  0  0  0  0  0  0  0  0  0  0
    1.2283  -50.6666    6.6110 N   0  0  0  0  0  0  0  0  0  0  0  0
    4.2917  -47.7071    6.7381 H   0  0  0  0  0  0  0  0  0  0  0  0
   -0.5136  -52.9460    6.8020 H   0  0  0  0  0  0  0  0  0  0  0  0
   -2.9298  -52.7964    6.2339 H   0  0  0  0  0  0  0  0  0  0  0  0
   -3.8849  -50.6371    5.4518 H   0  0  0  0  0  0  0  0  0  0  0  0
    1.3155  -46.7782    5.4636 H   0  0  0  0  0  0  0  0  0  0  0  0
   -0.3867  -47.0041    4.9362 H   0  0  0  0  0  0  0  0  0  0  0  0
   -0.9921  -47.0009    7.4501 H   0  0  0  0  0  0  0  0  0  0  0  0
    0.6712  -46.3847    7.7335 H   0  0  0  0  0  0  0  0  0  0  0  0
   -0.8481  -44.4941    7.6770 H   0  0  0  0  0  0  0  0  0  0  0  0
    0.1457  -44.4598    6.1811 H   0  0  0  0  0  0  0  0  0  0  0  0
   -2.3761  -45.5991    8.5686 H   0  0  0  0  0  0  0  0  0  0  0  0
   -4.7452  -45.1298   10.5429 H   0  0  0  0  0  0  0  0  0  0  0  0
   -5.6247  -46.6034   10.0125 H   0  0  0  0  0  0  0  0  0  0  0  0
   -3.8392  -46.6434   10.2042 H   0  0  0  0  0  0  0  0  0  0  0  0
   -6.9767  -43.7698    5.3962 H   0  0  0  0  0  0  0  0  0  0  0  0
   -6.4042  -45.1083    4.3441 H   0  0  0  0  0  0  0  0  0  0  0  0
   -7.5152  -45.4540    5.7126 H   0  0  0  0  0  0  0  0  0  0  0  0
   -4.0514  -44.6649    4.7162 H   0  0  0  0  0  0  0  0  0  0  0  0
    1.8662  -51.3832    6.8931 H   0  0  0  0  0  0  0  0  0  0  0  0
  1  2  2  0  0  0  0
  2  3  1  0  0  0  0
  2  4  1  0  0  0  0
  4 11  2  0  0  0  0
  4 26  1  0  0  0  0
  5  6  2  0  0  0  0
  5 10  1  0  0  0  0
  5 26  1  0  0  0  0
  6  7  1  0  0  0  0
  7  8  2  0  0  0  0
  8  9  1  0  0  0  0
  9 10  2  0  0  0  0
  9 25  1  0  0  0  0
 10 11  1  0  0  0  0
 11 12  1  0  0  0  0
 12 13  1  0  0  0  0
 13 14  1  0  0  0  0
 14 15  1  0  0  0  0
 15 16  1  0  0  0  0
 16 17  2  0  0  0  0
 16 24  1  0  0  0  0
 17 18  1  0  0  0  0
 18 19  1  0  0  0  0
 18 20  2  0  0  0  0
 20 21  1  0  0  0  0
 20 22  1  0  0  0  0
 22 23  1  0  0  0  0
 22 24  2  0  0  0  0
  3 27  1  0  0  0  0
  6 28  1  0  0  0  0
  7 29  1  0  0  0  0
  8 30  1  0  0  0  0
 12 31  1  0  0  0  0
 12 32  1  0  0  0  0
 13 33  1  0  0  0  0
 13 34  1  0  0  0  0
 14 35  1  0  0  0  0
 14 36  1  0  0  0  0
 17 37  1  0  0  0  0
 19 38  1  0  0  0  0
 19 39  1  0  0  0  0
 19 40  1  0  0  0  0
 23 41  1  0  0  0  0
 23 42  1  0  0  0  0
 23 43  1  0  0  0  0
 24 44  1  0  0  0  0
 26 45  1  0  0  0  0
M  END
> <r_user_dG.exp>
-9.32829709690352

$$$$
50
  -OEChem-05192314073D
 Structure written by MMmdl.
 45 47  0     1  0  0  0  0  0999 V2000
    3.7793  -49.8551    7.0486 O   0  0  0  0  0  0  0  0  0  0  0  0
    2.9869  -48.9536    6.6755 C   0  0  0  0  0  0  0  0  0  0  0  0
    3.3674  -47.7712    6.5283 O   0  0  0  0  0  0  0  0  0  0  0  0
    1.5743  -49.3351    6.4116 C   0  0  0  0  0  0  0  0  0  0  0  0
   -0.1186  -50.8654    6.3660 C   0  0  0  0  0  0  0  0  0  0  0  0
   -0.9353  -52.0079    6.4726 C   0  0  0  0  0  0  0  0  0  0  0  0
   -2.2983  -51.9243    6.1497 C   0  0  0  0  0  0  0  0  0  0  0  0
   -2.8394  -50.6992    5.7155 C   0  0  0  0  0  0  0  0  0  0  0  0
   -2.0219  -49.5504    5.6229 C   0  0  0  0  0  0  0  0  0  0  0  0
   -0.6359  -49.6058    5.9539 C   0  0  0  0  0  0  0  0  0  0  0  0
    0.4437  -48.6413    6.0163 C   0  0  3  0  0  0  0  0  0  0  0  0
    0.3299  -47.1710    5.7539 C   0  0  0  0  0  0  0  0  0  0  0  0
   -0.1581  -46.4326    7.0125 C   0  0  0  0  0  0  0  0  0  0  0  0
   -0.6377  -45.0064    6.7266 C   0  0  0  0  0  0  0  0  0  0  0  0
   -1.8216  -45.0466    5.9392 O   0  0  0  0  0  0  0  0  0  0  0  0
   -3.0478  -45.1371    6.5648 C   0  0  0  0  0  0  0  0  0  0  0  0
   -3.2350  -45.4603    7.9288 C   0  0  0  0  0  0  0  0  0  0  0  0
   -4.5322  -45.6029    8.4606 C   0  0  0  0  0  0  0  0  0  0  0  0
   -4.6965  -46.0234    9.9032 C   0  0  0  0  0  0  0  0  0  0  0  0
   -5.6613  -45.3986    7.6394 C   0  0  0  0  0  0  0  0  0  0  0  0
   -7.2509  -45.6153    8.2746 Cl  0  0  0  0  0  0  0  0  0  0  0  0
   -5.4842  -45.0381    6.2876 C   0  0  0  0  0  0  0  0  0  0  0  0
   -6.6772  -44.8280    5.3721 C   0  0  0  0  0  0  0  0  0  0  0  0
   -4.1811  -44.9222    5.7571 C   0  0  0  0  0  0  0  0  0  0  0  0
   -2.7591  -48.0672    5.1129 Cl  0  0  0  0  0  0  0  0  0  0  0  0
    1.2283  -50.6666    6.6110 N   0  0  0  0  0  0  0  0  0  0  0  0
    4.2917  -47.7071    6.7381 H   0  0  0  0  0  0  0  0  0  0  0  0
   -0.5136  -52.9460    6.8020 H   0  0  0  0  0  0  0  0  0  0  0  0
   -2.9298  -52.7964    6.2339 H   0  0  0  0  0  0  0  0  0  0  0  0
   -3.8849  -50.6371    5.4518 H   0  0  0  0  0  0  0  0  0  0  0  0
    0.6851  -48.8239    4.9588 H   0  0  0  0  0  0  0  0  0  0  0  0
    1.3155  -46.7782    5.4636 H   0  0  0  0  0  0  0  0  0  0  0  0
   -0.3867  -47.0041    4.9362 H   0  0  0  0  0  0  0  0  0  0  0  0
   -0.9921  -47.0009    7.4501 H   0  0  0  0  0  0  0  0  0  0  0  0
    0.6712  -46.3847    7.7335 H   0  0  0  0  0  0  0  0  0  0  0  0
   -0.8481  -44.4941    7.6770 H   0  0  0  0  0  0  0  0  0  0  0  0
    0.1457  -44.4598    6.1811 H   0  0  0  0  0  0  0  0  0  0  0  0
   -2.3761  -45.5991    8.5686 H   0  0  0  0  0  0  0  0  0  0  0  0
   -4.7452  -45.1298   10.5429 H   0  0  0  0  0  0  0  0  0  0  0  0
   -5.6247  -46.6034   10.0125 H   0  0  0  0  0  0  0  0  0  0  0  0
   -3.8392  -46.6434   10.2042 H   0  0  0  0  0  0  0  0  0  0  0  0
   -6.9767  -43.7698    5.3962 H   0  0  0  0  0  0  0  0  0  0  0  0
   -6.4042  -45.1083    4.3441 H   0  0  0  0  0  0  0  0  0  0  0  0
   -7.5152  -45.4540    5.7126 H   0  0  0  0  0  0  0  0  0  0  0  0
   -4.0514  -44.6649    4.7162 H   0  0  0  0  0  0  0  0  0  0  0  0
  1  2  2  0  0  0  0
  2  3  1  0  0  0  0
  2  4  1  0  0  0  0
  4 11  1  0  0  0  0
  4 26  2  0  0  0  0
  5  6  2  0  0  0  0
  5 10  1  0  0  0  0
  5 26  1  0  0  0  0
  6  7  1  0  0  0  0
  7  8  2  0  0  0  0
  8  9  1  0  0  0  0
  9 10  2  0  0  0  0
  9 25  1  0  0  0  0
 10 11  1  0  0  0  0
 11 12  1  0  0  0  0
 12 13  1  0  0  0  0
 13 14  1  0  0  0  0
 14 15  1  0  0  0  0
 15 16  1  0  0  0  0
 16 17  2  0  0  0  0
 16 24  1  0  0  0  0
 17 18  1  0  0  0  0
 18 19  1  0  0  0  0
 18 20  2  0  0  0  0
 20 21  1  0  0  0  0
 20 22  1  0  0  0  0
 22 23  1  0  0  0  0
 22 24  2  0  0  0  0
  3 27  1  0  0  0  0
  6 28  1  0  0  0  0
  7 29  1  0  0  0  0
  8 30  1  0  0  0  0
 11 31  1  0  0  0  0
 12 32  1  0  0  0  0
 12 33  1  0  0  0  0
 13 34  1  0  0  0  0
 13 35  1  0  0  0  0
 14 36  1  0  0  0  0
 14 37  1  0  0  0  0
 17 38  1  0  0  0  0
 19 39  1  0  0  0  0
 19 40  1  0  0  0  0
 19 41  1  0  0  0  0
 23 42  1  0  0  0  0
 23 43  1  0  0  0  0
 23 44  1  0  0  0  0
 24 45  1  0  0  0  0
M  END
> <r_user_dG.exp>
-9.32829709690352

$$$$
50
  -OEChem-05192314073D
 Structure written by MMmdl.
 45 47  0     1  0  0  0  0  0999 V2000
    3.7793  -49.8551    7.0486 O   0  0  0  0  0  0  0  0  0  0  0  0
    2.9869  -48.9536    6.6755 C   0  0  0  0  0  0  0  0  0  0  0  0
    3.3674  -47.7712    6.5283 O   0  0  0  0  0  0  0  0  0  0  0  0
    1.5743  -49.3351    6.4116 C   0  0  3  0  0  0  0  0  0  0  0  0
   -0.1186  -50.8654    6.3660 C   0  0  0  0  0  0  0  0  0  0  0  0
   -0.9353  -52.0079    6.4726 C   0  0  0  0  0  0  0  0  0  0  0  0
   -2.2983  -51.9243    6.1497 C   0  0  0  0  0  0  0  0  0  0  0  0
   -2.8394  -50.6992    5.7155 C   0  0  0  0  0  0  0  0  0  0  0  0
   -2.0219  -49.5504    5.6229 C   0  0  0  0  0  0  0  0  0  0  0  0
   -0.6359  -49.6058    5.9539 C   0  0  0  0  0  0  0  0  0  0  0  0
    0.4437  -48.6413    6.0163 C   0  0  0  0  0  0  0  0  0  0  0  0
    0.3299  -47.1710    5.7539 C   0  0  0  0  0  0  0  0  0  0  0  0
   -0.1581  -46.4326    7.0125 C   0  0  0  0  0  0  0  0  0  0  0  0
   -0.6377  -45.0064    6.7266 C   0  0  0  0  0  0  0  0  0  0  0  0
   -1.8216  -45.0466    5.9392 O   0  0  0  0  0  0  0  0  0  0  0  0
   -3.0478  -45.1371    6.5648 C   0  0  0  0  0  0  0  0  0  0  0  0
   -3.2350  -45.4603    7.9288 C   0  0  0  0  0  0  0  0  0  0  0  0
   -4.5322  -45.6029    8.4606 C   0  0  0  0  0  0  0  0  0  0  0  0
   -4.6965  -46.0234    9.9032 C   0  0  0  0  0  0  0  0  0  0  0  0
   -5.6613  -45.3986    7.6394 C   0  0  0  0  0  0  0  0  0  0  0  0
   -7.2509  -45.6153    8.2746 Cl  0  0  0  0  0  0  0  0  0  0  0  0
   -5.4842  -45.0381    6.2876 C   0  0  0  0  0  0  0  0  0  0  0  0
   -6.6772  -44.8280    5.3721 C   0  0  0  0  0  0  0  0  0  0  0  0
   -4.1811  -44.9222    5.7571 C   0  0  0  0  0  0  0  0  0  0  0  0
   -2.7591  -48.0672    5.1129 Cl  0  0  0  0  0  0  0  0  0  0  0  0
    1.2283  -50.6666    6.6110 N   0  0  0  0  0  0  0  0  0  0  0  0
    4.2917  -47.7071    6.7381 H   0  0  0  0  0  0  0  0  0  0  0  0
    1.8205  -49.5483    5.3609 H   0  0  0  0  0  0  0  0  0  0  0  0
   -0.5136  -52.9460    6.8020 H   0  0  0  0  0  0  0  0  0  0  0  0
   -2.9298  -52.7964    6.2339 H   0  0  0  0  0  0  0  0  0  0  0  0
   -3.8849  -50.6371    5.4518 H   0  0  0  0  0  0  0  0  0  0  0  0
    1.3155  -46.7782    5.4636 H   0  0  0  0  0  0  0  0  0  0  0  0
   -0.3867  -47.0041    4.9362 H   0  0  0  0  0  0  0  0  0  0  0  0
   -0.9921  -47.0009    7.4501 H   0  0  0  0  0  0  0  0  0  0  0  0
    0.6712  -46.3847    7.7335 H   0  0  0  0  0  0  0  0  0  0  0  0
   -0.8481  -44.4941    7.6770 H   0  0  0  0  0  0  0  0  0  0  0  0
    0.1457  -44.4598    6.1811 H   0  0  0  0  0  0  0  0  0  0  0  0
   -2.3761  -45.5991    8.5686 H   0  0  0  0  0  0  0  0  0  0  0  0
   -4.7452  -45.1298   10.5429 H   0  0  0  0  0  0  0  0  0  0  0  0
   -5.6247  -46.6034   10.0125 H   0  0  0  0  0  0  0  0  0  0  0  0
   -3.8392  -46.6434   10.2042 H   0  0  0  0  0  0  0  0  0  0  0  0
   -6.9767  -43.7698    5.3962 H   0  0  0  0  0  0  0  0  0  0  0  0
   -6.4042  -45.1083    4.3441 H   0  0  0  0  0  0  0  0  0  0  0  0
   -7.5152  -45.4540    5.7126 H   0  0  0  0  0  0  0  0  0  0  0  0
   -4.0514  -44.6649    4.7162 H   0  0  0  0  0  0  0  0  0  0  0  0
  1  2  2  0  0  0  0
  2  3  1  0  0  0  0
  2  4  1  0  0  0  0
  4 11  1  0  0  0  0
  4 26  1  0  0  0  0
  5  6  1  0  0  0  0
  5 10  1  0  0  0  0
  5 26  2  0  0  0  0
  6  7  2  0  0  0  0
  7  8  1  0  0  0  0
  8  9  2  0  0  0  0
  9 10  1  0  0  0  0
  9 25  1  0  0  0  0
 10 11  2  0  0  0  0
 11 12  1  0  0  0  0
 12 13  1  0  0  0  0
 13 14  1  0  0  0  0
 14 15  1  0  0  0  0
 15 16  1  0  0  0  0
 16 17  2  0  0  0  0
 16 24  1  0  0  0  0
 17 18  1  0  0  0  0
 18 19  1  0  0  0  0
 18 20  2  0  0  0  0
 20 21  1  0  0  0  0
 20 22  1  0  0  0  0
 22 23  1  0  0  0  0
 22 24  2  0  0  0  0
  3 27  1  0  0  0  0
  4 28  1  0  0  0  0
  6 29  1  0  0  0  0
  7 30  1  0  0  0  0
  8 31  1  0  0  0  0
 12 32  1  0  0  0  0
 12 33  1  0  0  0  0
 13 34  1  0  0  0  0
 13 35  1  0  0  0  0
 14 36  1  0  0  0  0
 14 37  1  0  0  0  0
 17 38  1  0  0  0  0
 19 39  1  0  0  0  0
 19 40  1  0  0  0  0
 19 41  1  0  0  0  0
 23 42  1  0  0  0  0
 23 43  1  0  0  0  0
 23 44  1  0  0  0  0
 24 45  1  0  0  0  0
M  END
> <r_user_dG.exp>
-9.32829709690352

$$$$
50
  -OEChem-05192314073D
 Structure written by MMmdl.
 45 47  0     1  0  0  0  0  0999 V2000
    3.7793  -49.8551    7.0486 O   0  0  0  0  0  0  0  0  0  0  0  0
    2.9869  -48.9536    6.6755 C   0  0  0  0  0  0  0  0  0  0  0  0
    3.3674  -47.7712    6.5283 O   0  0  0  0  0  0  0  0  0  0  0  0
    1.5743  -49.3351    6.4116 C   0  0  0  0  0  0  0  0  0  0  0  0
   -0.1186  -50.8654    6.3660 C   0  0  0  0  0  0  0  0  0  0  0  0
   -0.9353  -52.0079    6.4726 C   0  0  0  0  0  0  0  0  0  0  0  0
   -2.2983  -51.9243    6.1497 C   0  0  0  0  0  0  0  0  0  0  0  0
   -2.8394  -50.6992    5.7155 C   0  0  0  0  0  0  0  0  0  0  0  0
   -2.0219  -49.5504    5.6229 C   0  0  3  0  0  0  0  0  0  0  0  0
   -0.6359  -49.6058    5.9539 C   0  0  0  0  0  0  0  0  0  0  0  0
    0.4437  -48.6413    6.0163 C   0  0  0  0  0  0  0  0  0  0  0  0
    0.3299  -47.1710    5.7539 C   0  0  0  0  0  0  0  0  0  0  0  0
   -0.1581  -46.4326    7.0125 C   0  0  0  0  0  0  0  0  0  0  0  0
   -0.6377  -45.0064    6.7266 C   0  0  0  0  0  0  0  0  0  0  0  0
   -1.8216  -45.0466    5.9392 O   0  0  0  0  0  0  0  0  0  0  0  0
   -3.0478  -45.1371    6.5648 C   0  0  0  0  0  0  0  0  0  0  0  0
   -3.2350  -45.4603    7.9288 C   0  0  0  0  0  0  0  0  0  0  0  0
   -4.5322  -45.6029    8.4606 C   0  0  0  0  0  0  0  0  0  0  0  0
   -4.6965  -46.0234    9.9032 C   0  0  0  0  0  0  0  0  0  0  0  0
   -5.6613  -45.3986    7.6394 C   0  0  0  0  0  0  0  0  0  0  0  0
   -7.2509  -45.6153    8.2746 Cl  0  0  0  0  0  0  0  0  0  0  0  0
   -5.4842  -45.0381    6.2876 C   0  0  0  0  0  0  0  0  0  0  0  0
   -6.6772  -44.8280    5.3721 C   0  0  0  0  0  0  0  0  0  0  0  0
   -4.1811  -44.9222    5.7571 C   0  0  0  0  0  0  0  0  0  0  0  0
   -2.7591  -48.0672    5.1129 Cl  0  0  0  0  0  0  0  0  0  0  0  0
    1.2283  -50.6666    6.6110 N   0  0  0  0  0  0  0  0  0  0  0  0
    4.2917  -47.7071    6.7381 H   0  0  0  0  0  0  0  0  0  0  0  0
   -0.5136  -52.9460    6.8020 H   0  0  0  0  0  0  0  0  0  0  0  0
   -2.9298  -52.7964    6.2339 H   0  0  0  0  0  0  0  0  0  0  0  0
   -3.8849  -50.6371    5.4518 H   0  0  0  0  0  0  0  0  0  0  0  0
   -1.7864  -49.7970    4.5771 H   0  0  0  0  0  0  0  0  0  0  0  0
    1.3155  -46.7782    5.4636 H   0  0  0  0  0  0  0  0  0  0  0  0
   -0.3867  -47.0041    4.9362 H   0  0  0  0  0  0  0  0  0  0  0  0
   -0.9921  -47.0009    7.4501 H   0  0  0  0  0  0  0  0  0  0  0  0
    0.6712  -46.3847    7.7335 H   0  0  0  0  0  0  0  0  0  0  0  0
   -0.8481  -44.4941    7.6770 H   0  0  0  0  0  0  0  0  0  0  0  0
    0.1457  -44.4598    6.1811 H   0  0  0  0  0  0  0  0  0  0  0  0
   -2.3761  -45.5991    8.5686 H   0  0  0  0  0  0  0  0  0  0  0  0
   -4.7452  -45.1298   10.5429 H   0  0  0  0  0  0  0  0  0  0  0  0
   -5.6247  -46.6034   10.0125 H   0  0  0  0  0  0  0  0  0  0  0  0
   -3.8392  -46.6434   10.2042 H   0  0  0  0  0  0  0  0  0  0  0  0
   -6.9767  -43.7698    5.3962 H   0  0  0  0  0  0  0  0  0  0  0  0
   -6.4042  -45.1083    4.3441 H   0  0  0  0  0  0  0  0  0  0  0  0
   -7.5152  -45.4540    5.7126 H   0  0  0  0  0  0  0  0  0  0  0  0
   -4.0514  -44.6649    4.7162 H   0  0  0  0  0  0  0  0  0  0  0  0
  1  2  2  0  0  0  0
  2  3  1  0  0  0  0
  2  4  1  0  0  0  0
  4 11  1  0  0  0  0
  4 26  2  0  0  0  0
  5  6  2  0  0  0  0
  5 10  1  0  0  0  0
  5 26  1  0  0  0  0
  6  7  1  0  0  0  0
  7  8  2  0  0  0  0
  8  9  1  0  0  0  0
  9 10  1  0  0  0  0
  9 25  1  0  0  0  0
 10 11  2  0  0  0  0
 11 12  1  0  0  0  0
 12 13  1  0  0  0  0
 13 14  1  0  0  0  0
 14 15  1  0  0  0  0
 15 16  1  0  0  0  0
 16 17  2  0  0  0  0
 16 24  1  0  0  0  0
 17 18  1  0  0  0  0
 18 19  1  0  0  0  0
 18 20  2  0  0  0  0
 20 21  1  0  0  0  0
 20 22  1  0  0  0  0
 22 23  1  0  0  0  0
 22 24  2  0  0  0  0
  3 27  1  0  0  0  0
  6 28  1  0  0  0  0
  7 29  1  0  0  0  0
  8 30  1  0  0  0  0
  9 31  1  0  0  0  0
 12 32  1  0  0  0  0
 12 33  1  0  0  0  0
 13 34  1  0  0  0  0
 13 35  1  0  0  0  0
 14 36  1  0  0  0  0
 14 37  1  0  0  0  0
 17 38  1  0  0  0  0
 19 39  1  0  0  0  0
 19 40  1  0  0  0  0
 19 41  1  0  0  0  0
 23 42  1  0  0  0  0
 23 43  1  0  0  0  0
 23 44  1  0  0  0  0
 24 45  1  0  0  0  0
M  END
> <r_user_dG.exp>
-9.32829709690352

$$$$
50
  -OEChem-05192314073D
 Structure written by MMmdl.
 45 47  0     1  0  0  0  0  0999 V2000
    3.7793  -49.8551    7.0486 O   0  0  0  0  0  0  0  0  0  0  0  0
    2.9869  -48.9536    6.6755 C   0  0  0  0  0  0  0  0  0  0  0  0
    3.3674  -47.7712    6.5283 O   0  0  0  0  0  0  0  0  0  0  0  0
    1.5743  -49.3351    6.4116 C   0  0  0  0  0  0  0  0  0  0  0  0
   -0.1186  -50.8654    6.3660 C   0  0  0  0  0  0  0  0  0  0  0  0
   -0.9353  -52.0079    6.4726 C   0  0  0  0  0  0  0  0  0  0  0  0
   -2.2983  -51.9243    6.1497 C   0  0  0  0  0  0  0  0  0  0  0  0
   -2.8394  -50.6992    5.7155 C   0  0  0  0  0  0  0  0  0  0  0  0
   -2.0219  -49.5504    5.6229 C   0  0  0  0  0  0  0  0  0  0  0  0
   -0.6359  -49.6058    5.9539 C   0  0  3  0  0  0  0  0  0  0  0  0
    0.4437  -48.6413    6.0163 C   0  0  0  0  0  0  0  0  0  0  0  0
    0.3299  -47.1710    5.7539 C   0  0  0  0  0  0  0  0  0  0  0  0
   -0.1581  -46.4326    7.0125 C   0  0  0  0  0  0  0  0  0  0  0  0
   -0.6377  -45.0064    6.7266 C   0  0  0  0  0  0  0  0  0  0  0  0
   -1.8216  -45.0466    5.9392 O   0  0  0  0  0  0  0  0  0  0  0  0
   -3.0478  -45.1371    6.5648 C   0  0  0  0  0  0  0  0  0  0  0  0
   -3.2350  -45.4603    7.9288 C   0  0  0  0  0  0  0  0  0  0  0  0
   -4.5322  -45.6029    8.4606 C   0  0  0  0  0  0  0  0  0  0  0  0
   -4.6965  -46.0234    9.9032 C   0  0  0  0  0  0  0  0  0  0  0  0
   -5.6613  -45.3986    7.6394 C   0  0  0  0  0  0  0  0  0  0  0  0
   -7.2509  -45.6153    8.2746 Cl  0  0  0  0  0  0  0  0  0  0  0  0
   -5.4842  -45.0381    6.2876 C   0  0  0  0  0  0  0  0  0  0  0  0
   -6.6772  -44.8280    5.3721 C   0  0  0  0  0  0  0  0  0  0  0  0
   -4.1811  -44.9222    5.7571 C   0  0  0  0  0  0  0  0  0  0  0  0
   -2.7591  -48.0672    5.1129 Cl  0  0  0  0  0  0  0  0  0  0  0  0
    1.2283  -50.6666    6.6110 N   0  0  0  0  0  0  0  0  0  0  0  0
    4.2917  -47.7071    6.7381 H   0  0  0  0  0  0  0  0  0  0  0  0
   -0.5136  -52.9460    6.8020 H   0  0  0  0  0  0  0  0  0  0  0  0
   -2.9298  -52.7964    6.2339 H   0  0  0  0  0  0  0  0  0  0  0  0
   -3.8849  -50.6371    5.4518 H   0  0  0  0  0  0  0  0  0  0  0  0
   -0.3849  -49.8338    4.9075 H   0  0  0  0  0  0  0  0  0  0  0  0
    1.3155  -46.7782    5.4636 H   0  0  0  0  0  0  0  0  0  0  0  0
   -0.3867  -47.0041    4.9362 H   0  0  0  0  0  0  0  0  0  0  0  0
   -0.9921  -47.0009    7.4501 H   0  0  0  0  0  0  0  0  0  0  0  0
    0.6712  -46.3847    7.7335 H   0  0  0  0  0  0  0  0  0  0  0  0
   -0.8481  -44.4941    7.6770 H   0  0  0  0  0  0  0  0  0  0  0  0
    0.1457  -44.4598    6.1811 H   0  0  0  0  0  0  0  0  0  0  0  0
   -2.3761  -45.5991    8.5686 H   0  0  0  0  0  0  0  0  0  0  0  0
   -4.7452  -45.1298   10.5429 H   0  0  0  0  0  0  0  0  0  0  0  0
   -5.6247  -46.6034   10.0125 H   0  0  0  0  0  0  0  0  0  0  0  0
   -3.8392  -46.6434   10.2042 H   0  0  0  0  0  0  0  0  0  0  0  0
   -6.9767  -43.7698    5.3962 H   0  0  0  0  0  0  0  0  0  0  0  0
   -6.4042  -45.1083    4.3441 H   0  0  0  0  0  0  0  0  0  0  0  0
   -7.5152  -45.4540    5.7126 H   0  0  0  0  0  0  0  0  0  0  0  0
   -4.0514  -44.6649    4.7162 H   0  0  0  0  0  0  0  0  0  0  0  0
  1  2  2  0  0  0  0
  2  3  1  0  0  0  0
  2  4  1  0  0  0  0
  4 11  2  0  0  0  0
  4 26  1  0  0  0  0
  5  6  1  0  0  0  0
  5 10  1  0  0  0  0
  5 26  2  0  0  0  0
  6  7  2  0  0  0  0
  7  8  1  0  0  0  0
  8  9  2  0  0  0  0
  9 10  1  0  0  0  0
  9 25  1  0  0  0  0
 10 11  1  0  0  0  0
 11 12  1  0  0  0  0
 12 13  1  0  0  0  0
 13 14  1  0  0  0  0
 14 15  1  0  0  0  0
 15 16  1  0  0  0  0
 16 17  2  0  0  0  0
 16 24  1  0  0  0  0
 17 18  1  0  0  0  0
 18 19  1  0  0  0  0
 18 20  2  0  0  0  0
 20 21  1  0  0  0  0
 20 22  1  0  0  0  0
 22 23  1  0  0  0  0
 22 24  2  0  0  0  0
  3 27  1  0  0  0  0
  6 28  1  0  0  0  0
  7 29  1  0  0  0  0
  8 30  1  0  0  0  0
 10 31  1  0  0  0  0
 12 32  1  0  0  0  0
 12 33  1  0  0  0  0
 13 34  1  0  0  0  0
 13 35  1  0  0  0  0
 14 36  1  0  0  0  0
 14 37  1  0  0  0  0
 17 38  1  0  0  0  0
 19 39  1  0  0  0  0
 19 40  1  0  0  0  0
 19 41  1  0  0  0  0
 23 42  1  0  0  0  0
 23 43  1  0  0  0  0
 23 44  1  0  0  0  0
 24 45  1  0  0  0  0
M  END
> <r_user_dG.exp>
-9.32829709690352

$$$$
50
  -OEChem-05192314073D
 Structure written by MMmdl.
 45 47  0     1  0  0  0  0  0999 V2000
    3.7793  -49.8551    7.0486 O   0  0  0  0  0  0  0  0  0  0  0  0
    2.9869  -48.9536    6.6755 C   0  0  0  0  0  0  0  0  0  0  0  0
    3.3674  -47.7712    6.5283 O   0  0  0  0  0  0  0  0  0  0  0  0
    1.5743  -49.3351    6.4116 C   0  0  0  0  0  0  0  0  0  0  0  0
   -0.1186  -50.8654    6.3660 C   0  0  3  0  0  0  0  0  0  0  0  0
   -0.9353  -52.0079    6.4726 C   0  0  0  0  0  0  0  0  0  0  0  0
   -2.2983  -51.9243    6.1497 C   0  0  0  0  0  0  0  0  0  0  0  0
   -2.8394  -50.6992    5.7155 C   0  0  0  0  0  0  0  0  0  0  0  0
   -2.0219  -49.5504    5.6229 C   0  0  0  0  0  0  0  0  0  0  0  0
   -0.6359  -49.6058    5.9539 C   0  0  0  0  0  0  0  0  0  0  0  0
    0.4437  -48.6413    6.0163 C   0  0  0  0  0  0  0  0  0  0  0  0
    0.3299  -47.1710    5.7539 C   0  0  0  0  0  0  0  0  0  0  0  0
   -0.1581  -46.4326    7.0125 C   0  0  0  0  0  0  0  0  0  0  0  0
   -0.6377  -45.0064    6.7266 C   0  0  0  0  0  0  0  0  0  0  0  0
   -1.8216  -45.0466    5.9392 O   0  0  0  0  0  0  0  0  0  0  0  0
   -3.0478  -45.1371    6.5648 C   0  0  0  0  0  0  0  0  0  0  0  0
   -3.2350  -45.4603    7.9288 C   0  0  0  0  0  0  0  0  0  0  0  0
   -4.5322  -45.6029    8.4606 C   0  0  0  0  0  0  0  0  0  0  0  0
   -4.6965  -46.0234    9.9032 C   0  0  0  0  0  0  0  0  0  0  0  0
   -5.6613  -45.3986    7.6394 C   0  0  0  0  0  0  0  0  0  0  0  0
   -7.2509  -45.6153    8.2746 Cl  0  0  0  0  0  0  0  0  0  0  0  0
   -5.4842  -45.0381    6.2876 C   0  0  0  0  0  0  0  0  0  0  0  0
   -6.6772  -44.8280    5.3721 C   0  0  0  0  0  0  0  0  0  0  0  0
   -4.1811  -44.9222    5.7571 C   0  0  0  0  0  0  0  0  0  0  0  0
   -2.7591  -48.0672    5.1129 Cl  0  0  0  0  0  0  0  0  0  0  0  0
    1.2283  -50.6666    6.6110 N   0  0  0  0  0  0  0  0  0  0  0  0
    4.2917  -47.7071    6.7381 H   0  0  0  0  0  0  0  0  0  0  0  0
    0.1058  -51.1193    5.3195 H   0  0  0  0  0  0  0  0  0  0  0  0
   -0.5136  -52.9460    6.8020 H   0  0  0  0  0  0  0  0  0  0  0  0
   -2.9298  -52.7964    6.2339 H   0  0  0  0  0  0  0  0  0  0  0  0
   -3.8849  -50.6371    5.4518 H   0  0  0  0  0  0  0  0  0  0  0  0
    1.3155  -46.7782    5.4636 H   0  0  0  0  0  0  0  0  0  0  0  0
   -0.3867  -47.0041    4.9362 H   0  0  0  0  0  0  0  0  0  0  0  0
   -0.9921  -47.0009    7.4501 H   0  0  0  0  0  0  0  0  0  0  0  0
    0.6712  -46.3847    7.7335 H   0  0  0  0  0  0  0  0  0  0  0  0
   -0.8481  -44.4941    7.6770 H   0  0  0  0  0  0  0  0  0  0  0  0
    0.1457  -44.4598    6.1811 H   0  0  0  0  0  0  0  0  0  0  0  0
   -2.3761  -45.5991    8.5686 H   0  0  0  0  0  0  0  0  0  0  0  0
   -4.7452  -45.1298   10.5429 H   0  0  0  0  0  0  0  0  0  0  0  0
   -5.6247  -46.6034   10.0125 H   0  0  0  0  0  0  0  0  0  0  0  0
   -3.8392  -46.6434   10.2042 H   0  0  0  0  0  0  0  0  0  0  0  0
   -6.9767  -43.7698    5.3962 H   0  0  0  0  0  0  0  0  0  0  0  0
   -6.4042  -45.1083    4.3441 H   0  0  0  0  0  0  0  0  0  0  0  0
   -7.5152  -45.4540    5.7126 H   0  0  0  0  0  0  0  0  0  0  0  0
   -4.0514  -44.6649    4.7162 H   0  0  0  0  0  0  0  0  0  0  0  0
  1  2  2  0  0  0  0
  2  3  1  0  0  0  0
  2  4  1  0  0  0  0
  4 11  1  0  0  0  0
  4 26  2  0  0  0  0
  5  6  1  0  0  0  0
  5 10  1  0  0  0  0
  5 26  1  0  0  0  0
  6  7  2  0  0  0  0
  7  8  1  0  0  0  0
  8  9  2  0  0  0  0
  9 10  1  0  0  0  0
  9 25  1  0  0  0  0
 10 11  2  0  0  0  0
 11 12  1  0  0  0  0
 12 13  1  0  0  0  0
 13 14  1  0  0  0  0
 14 15  1  0  0  0  0
 15 16  1  0  0  0  0
 16 17  2  0  0  0  0
 16 24  1  0  0  0  0
 17 18  1  0  0  0  0
 18 19  1  0  0  0  0
 18 20  2  0  0  0  0
 20 21  1  0  0  0  0
 20 22  1  0  0  0  0
 22 23  1  0  0  0  0
 22 24  2  0  0  0  0
  3 27  1  0  0  0  0
  5 28  1  0  0  0  0
  6 29  1  0  0  0  0
  7 30  1  0  0  0  0
  8 31  1  0  0  0  0
 12 32  1  0  0  0  0
 12 33  1  0  0  0  0
 13 34  1  0  0  0  0
 13 35  1  0  0  0  0
 14 36  1  0  0  0  0
 14 37  1  0  0  0  0
 17 38  1  0  0  0  0
 19 39  1  0  0  0  0
 19 40  1  0  0  0  0
 19 41  1  0  0  0  0
 23 42  1  0  0  0  0
 23 43  1  0  0  0  0
 23 44  1  0  0  0  0
 24 45  1  0  0  0  0
M  END
> <r_user_dG.exp>
-9.32829709690352

$$$$
50
  -OEChem-05192314073D
 Structure written by MMmdl.
 45 47  0     0  0  0  0  0  0999 V2000
    3.7793  -49.8551    7.0486 O   0  0  0  0  0  0  0  0  0  0  0  0
    2.9869  -48.9536    6.6755 C   0  0  0  0  0  0  0  0  0  0  0  0
    3.3674  -47.7712    6.5283 O   0  0  0  0  0  0  0  0  0  0  0  0
    1.5743  -49.3351    6.4116 C   0  0  0  0  0  0  0  0  0  0  0  0
   -0.1186  -50.8654    6.3660 C   0  0  0  0  0  0  0  0  0  0  0  0
   -0.9353  -52.0079    6.4726 C   0  0  0  0  0  0  0  0  0  0  0  0
   -2.2983  -51.9243    6.1497 C   0  0  0  0  0  0  0  0  0  0  0  0
   -2.8394  -50.6992    5.7155 C   0  0  0  0  0  0  0  0  0  0  0  0
   -2.0219  -49.5504    5.6229 C   0  0  0  0  0  0  0  0  0  0  0  0
   -0.6359  -49.6058    5.9539 C   0  0  0  0  0  0  0  0  0  0  0  0
    0.4437  -48.6413    6.0163 C   0  0  0  0  0  0  0  0  0  0  0  0
    0.3299  -47.1710    5.7539 C   0  0  0  0  0  0  0  0  0  0  0  0
   -0.1581  -46.4326    7.0125 C   0  0  0  0  0  0  0  0  0  0  0  0
   -0.6377  -45.0064    6.7266 C   0  0  0  0  0  0  0  0  0  0  0  0
   -1.8216  -45.0466    5.9392 O   0  0  0  0  0  0  0  0  0  0  0  0
   -3.0478  -45.1371    6.5648 C   0  0  0  0  0  0  0  0  0  0  0  0
   -3.2350  -45.4603    7.9288 C   0  0  0  0  0  0  0  0  0  0  0  0
   -4.5322  -45.6029    8.4606 C   0  0  0  0  0  0  0  0  0  0  0  0
   -4.6965  -46.0234    9.9032 C   0  0  0  0  0  0  0  0  0  0  0  0
   -5.6613  -45.3986    7.6394 C   0  0  0  0  0  0  0  0  0  0  0  0
   -7.2509  -45.6153    8.2746 Cl  0  0  0  0  0  0  0  0  0  0  0  0
   -5.4842  -45.0381    6.2876 C   0  0  0  0  0  0  0  0  0  0  0  0
   -6.6772  -44.8280    5.3721 C   0  0  0  0  0  0  0  0  0  0  0  0
   -4.1811  -44.9222    5.7571 C   0  0  0  0  0  0  0  0  0  0  0  0
   -2.7591  -48.0672    5.1129 Cl  0  0  0  0  0  0  0  0  0  0  0  0
    1.2283  -50.6666    6.6110 N   0  0  0  0  0  0  0  0  0  0  0  0
    4.2917  -47.7071    6.7381 H   0  0  0  0  0  0  0  0  0  0  0  0
   -0.5136  -52.9460    6.8020 H   0  0  0  0  0  0  0  0  0  0  0  0
   -2.4815  -52.6555    5.3486 H   0  0  0  0  0  0  0  0  0  0  0  0
   -2.8578  -52.2187    7.0499 H   0  0  0  0  0  0  0  0  0  0  0  0
   -3.8849  -50.6371    5.4518 H   0  0  0  0  0  0  0  0  0  0  0  0
    1.3155  -46.7782    5.4636 H   0  0  0  0  0  0  0  0  0  0  0  0
   -0.3867  -47.0041    4.9362 H   0  0  0  0  0  0  0  0  0  0  0  0
   -0.9921  -47.0009    7.4501 H   0  0  0  0  0  0  0  0  0  0  0  0
    0.6712  -46.3847    7.7335 H   0  0  0  0  0  0  0  0  0  0  0  0
   -0.8481  -44.4941    7.6770 H   0  0  0  0  0  0  0  0  0  0  0  0
    0.1457  -44.4598    6.1811 H   0  0  0  0  0  0  0  0  0  0  0  0
   -2.3761  -45.5991    8.5686 H   0  0  0  0  0  0  0  0  0  0  0  0
   -4.7452  -45.1298   10.5429 H   0  0  0  0  0  0  0  0  0  0  0  0
   -5.6247  -46.6034   10.0125 H   0  0  0  0  0  0  0  0  0  0  0  0
   -3.8392  -46.6434   10.2042 H   0  0  0  0  0  0  0  0  0  0  0  0
   -6.9767  -43.7698    5.3962 H   0  0  0  0  0  0  0  0  0  0  0  0
   -6.4042  -45.1083    4.3441 H   0  0  0  0  0  0  0  0  0  0  0  0
   -7.5152  -45.4540    5.7126 H   0  0  0  0  0  0  0  0  0  0  0  0
   -4.0514  -44.6649    4.7162 H   0  0  0  0  0  0  0  0  0  0  0  0
  1  2  2  0  0  0  0
  2  3  1  0  0  0  0
  2  4  1  0  0  0  0
  4 11  1  0  0  0  0
  4 26  2  0  0  0  0
  5  6  2  0  0  0  0
  5 10  1  0  0  0  0
  5 26  1  0  0  0  0
  6  7  1  0  0  0  0
  7  8  1  0  0  0  0
  8  9  2  0  0  0  0
  9 10  1  0  0  0  0
  9 25  1  0  0  0  0
 10 11  2  0  0  0  0
 11 12  1  0  0  0  0
 12 13  1  0  0  0  0
 13 14  1  0  0  0  0
 14 15  1  0  0  0  0
 15 16  1  0  0  0  0
 16 17  2  0  0  0  0
 16 24  1  0  0  0  0
 17 18  1  0  0  0  0
 18 19  1  0  0  0  0
 18 20  2  0  0  0  0
 20 21  1  0  0  0  0
 20 22  1  0  0  0  0
 22 23  1  0  0  0  0
 22 24  2  0  0  0  0
  3 27  1  0  0  0  0
  6 28  1  0  0  0  0
  7 29  1  0  0  0  0
  7 30  1  0  0  0  0
  8 31  1  0  0  0  0
 12 32  1  0  0  0  0
 12 33  1  0  0  0  0
 13 34  1  0  0  0  0
 13 35  1  0  0  0  0
 14 36  1  0  0  0  0
 14 37  1  0  0  0  0
 17 38  1  0  0  0  0
 19 39  1  0  0  0  0
 19 40  1  0  0  0  0
 19 41  1  0  0  0  0
 23 42  1  0  0  0  0
 23 43  1  0  0  0  0
 23 44  1  0  0  0  0
 24 45  1  0  0  0  0
M  END
> <r_user_dG.exp>
-9.32829709690352

$$$$
50
  -OEChem-05192314073D
 Structure written by MMmdl.
 45 47  0     0  0  0  0  0  0999 V2000
    3.7793  -49.8551    7.0486 O   0  0  0  0  0  0  0  0  0  0  0  0
    2.9869  -48.9536    6.6755 C   0  0  0  0  0  0  0  0  0  0  0  0
    3.3674  -47.7712    6.5283 O   0  0  0  0  0  0  0  0  0  0  0  0
    1.5743  -49.3351    6.4116 C   0  0  0  0  0  0  0  0  0  0  0  0
   -0.1186  -50.8654    6.3660 C   0  0  0  0  0  0  0  0  0  0  0  0
   -0.9353  -52.0079    6.4726 C   0  0  0  0  0  0  0  0  0  0  0  0
   -2.2983  -51.9243    6.1497 C   0  0  0  0  0  0  0  0  0  0  0  0
   -2.8394  -50.6992    5.7155 C   0  0  0  0  0  0  0  0  0  0  0  0
   -2.0219  -49.5504    5.6229 C   0  0  0  0  0  0  0  0  0  0  0  0
   -0.6359  -49.6058    5.9539 C   0  0  0  0  0  0  0  0  0  0  0  0
    0.4437  -48.6413    6.0163 C   0  0  0  0  0  0  0  0  0  0  0  0
    0.3299  -47.1710    5.7539 C   0  0  0  0  0  0  0  0  0  0  0  0
   -0.1581  -46.4326    7.0125 C   0  0  0  0  0  0  0  0  0  0  0  0
   -0.6377  -45.0064    6.7266 C   0  0  0  0  0  0  0  0  0  0  0  0
   -1.8216  -45.0466    5.9392 O   0  0  0  0  0  0  0  0  0  0  0  0
   -3.0478  -45.1371    6.5648 C   0  0  0  0  0  0  0  0  0  0  0  0
   -3.2350  -45.4603    7.9288 C   0  0  0  0  0  0  0  0  0  0  0  0
   -4.5322  -45.6029    8.4606 C   0  0  0  0  0  0  0  0  0  0  0  0
   -4.6965  -46.0234    9.9032 C   0  0  0  0  0  0  0  0  0  0  0  0
   -5.6613  -45.3986    7.6394 C   0  0  0  0  0  0  0  0  0  0  0  0
   -7.2509  -45.6153    8.2746 Cl  0  0  0  0  0  0  0  0  0  0  0  0
   -5.4842  -45.0381    6.2876 C   0  0  0  0  0  0  0  0  0  0  0  0
   -6.6772  -44.8280    5.3721 C   0  0  0  0  0  0  0  0  0  0  0  0
   -4.1811  -44.9222    5.7571 C   0  0  0  0  0  0  0  0  0  0  0  0
   -2.7591  -48.0672    5.1129 Cl  0  0  0  0  0  0  0  0  0  0  0  0
    1.2283  -50.6666    6.6110 N   0  0  0  0  0  0  0  0  0  0  0  0
    4.2917  -47.7071    6.7381 H   0  0  0  0  0  0  0  0  0  0  0  0
   -0.4987  -52.7738    5.8147 H   0  0  0  0  0  0  0  0  0  0  0  0
   -0.8759  -52.3453    7.5179 H   0  0  0  0  0  0  0  0  0  0  0  0
   -2.9298  -52.7964    6.2339 H   0  0  0  0  0  0  0  0  0  0  0  0
   -3.8849  -50.6371    5.4518 H   0  0  0  0  0  0  0  0  0  0  0  0
    1.3155  -46.7782    5.4636 H   0  0  0  0  0  0  0  0  0  0  0  0
   -0.3867  -47.0041    4.9362 H   0  0  0  0  0  0  0  0  0  0  0  0
   -0.9921  -47.0009    7.4501 H   0  0  0  0  0  0  0  0  0  0  0  0
    0.6712  -46.3847    7.7335 H   0  0  0  0  0  0  0  0  0  0  0  0
   -0.8481  -44.4941    7.6770 H   0  0  0  0  0  0  0  0  0  0  0  0
    0.1457  -44.4598    6.1811 H   0  0  0  0  0  0  0  0  0  0  0  0
   -2.3761  -45.5991    8.5686 H   0  0  0  0  0  0  0  0  0  0  0  0
   -4.7452  -45.1298   10.5429 H   0  0  0  0  0  0  0  0  0  0  0  0
   -5.6247  -46.6034   10.0125 H   0  0  0  0  0  0  0  0  0  0  0  0
   -3.8392  -46.6434   10.2042 H   0  0  0  0  0  0  0  0  0  0  0  0
   -6.9767  -43.7698    5.3962 H   0  0  0  0  0  0  0  0  0  0  0  0
   -6.4042  -45.1083    4.3441 H   0  0  0  0  0  0  0  0  0  0  0  0
   -7.5152  -45.4540    5.7126 H   0  0  0  0  0  0  0  0  0  0  0  0
   -4.0514  -44.6649    4.7162 H   0  0  0  0  0  0  0  0  0  0  0  0
  1  2  2  0  0  0  0
  2  3  1  0  0  0  0
  2  4  1  0  0  0  0
  4 11  2  0  0  0  0
  4 26  1  0  0  0  0
  5  6  1  0  0  0  0
  5 10  1  0  0  0  0
  5 26  2  0  0  0  0
  6  7  1  0  0  0  0
  7  8  2  0  0  0  0
  8  9  1  0  0  0  0
  9 10  2  0  0  0  0
  9 25  1  0  0  0  0
 10 11  1  0  0  0  0
 11 12  1  0  0  0  0
 12 13  1  0  0  0  0
 13 14  1  0  0  0  0
 14 15  1  0  0  0  0
 15 16  1  0  0  0  0
 16 17  2  0  0  0  0
 16 24  1  0  0  0  0
 17 18  1  0  0  0  0
 18 19  1  0  0  0  0
 18 20  2  0  0  0  0
 20 21  1  0  0  0  0
 20 22  1  0  0  0  0
 22 23  1  0  0  0  0
 22 24  2  0  0  0  0
  3 27  1  0  0  0  0
  6 28  1  0  0  0  0
  6 29  1  0  0  0  0
  7 30  1  0  0  0  0
  8 31  1  0  0  0  0
 12 32  1  0  0  0  0
 12 33  1  0  0  0  0
 13 34  1  0  0  0  0
 13 35  1  0  0  0  0
 14 36  1  0  0  0  0
 14 37  1  0  0  0  0
 17 38  1  0  0  0  0
 19 39  1  0  0  0  0
 19 40  1  0  0  0  0
 19 41  1  0  0  0  0
 23 42  1  0  0  0  0
 23 43  1  0  0  0  0
 23 44  1  0  0  0  0
 24 45  1  0  0  0  0
M  END
> <r_user_dG.exp>
-9.32829709690352

$$$$
50
  -OEChem-05192314073D
 Structure written by MMmdl.
 45 47  0     0  0  0  0  0  0999 V2000
    3.7793  -49.8551    7.0486 O   0  0  0  0  0  0  0  0  0  0  0  0
    2.9869  -48.9536    6.6755 C   0  0  0  0  0  0  0  0  0  0  0  0
    3.3674  -47.7712    6.5283 O   0  0  0  0  0  0  0  0  0  0  0  0
    1.5743  -49.3351    6.4116 C   0  0  0  0  0  0  0  0  0  0  0  0
   -0.1186  -50.8654    6.3660 C   0  0  0  0  0  0  0  0  0  0  0  0
   -0.9353  -52.0079    6.4726 C   0  0  0  0  0  0  0  0  0  0  0  0
   -2.2983  -51.9243    6.1497 C   0  0  0  0  0  0  0  0  0  0  0  0
   -2.8394  -50.6992    5.7155 C   0  0  0  0  0  0  0  0  0  0  0  0
   -2.0219  -49.5504    5.6229 C   0  0  0  0  0  0  0  0  0  0  0  0
   -0.6359  -49.6058    5.9539 C   0  0  0  0  0  0  0  0  0  0  0  0
    0.4437  -48.6413    6.0163 C   0  0  0  0  0  0  0  0  0  0  0  0
    0.3299  -47.1710    5.7539 C   0  0  0  0  0  0  0  0  0  0  0  0
   -0.1581  -46.4326    7.0125 C   0  0  0  0  0  0  0  0  0  0  0  0
   -0.6377  -45.0064    6.7266 C   0  0  0  0  0  0  0  0  0  0  0  0
   -1.8216  -45.0466    5.9392 O   0  0  0  0  0  0  0  0  0  0  0  0
   -3.0478  -45.1371    6.5648 C   0  0  0  0  0  0  0  0  0  0  0  0
   -3.2350  -45.4603    7.9288 C   0  0  0  0  0  0  0  0  0  0  0  0
   -4.5322  -45.6029    8.4606 C   0  0  0  0  0  0  0  0  0  0  0  0
   -4.6965  -46.0234    9.9032 C   0  0  0  0  0  0  0  0  0  0  0  0
   -5.6613  -45.3986    7.6394 C   0  0  0  0  0  0  0  0  0  0  0  0
   -7.2509  -45.6153    8.2746 Cl  0  0  0  0  0  0  0  0  0  0  0  0
   -5.4842  -45.0381    6.2876 C   0  0  0  0  0  0  0  0  0  0  0  0
   -6.6772  -44.8280    5.3721 C   0  0  0  0  0  0  0  0  0  0  0  0
   -4.1811  -44.9222    5.7571 C   0  0  0  0  0  0  0  0  0  0  0  0
   -2.7591  -48.0672    5.1129 Cl  0  0  0  0  0  0  0  0  0  0  0  0
    1.2283  -50.6666    6.6110 N   0  0  0  0  0  0  0  0  0  0  0  0
    4.2917  -47.7071    6.7381 H   0  0  0  0  0  0  0  0  0  0  0  0
   -0.5136  -52.9460    6.8020 H   0  0  0  0  0  0  0  0  0  0  0  0
   -2.9298  -52.7964    6.2339 H   0  0  0  0  0  0  0  0  0  0  0  0
   -3.2526  -50.8746    4.7113 H   0  0  0  0  0  0  0  0  0  0  0  0
   -3.6558  -50.4508    6.4096 H   0  0  0  0  0  0  0  0  0  0  0  0
    1.3155  -46.7782    5.4636 H   0  0  0  0  0  0  0  0  0  0  0  0
   -0.3867  -47.0041    4.9362 H   0  0  0  0  0  0  0  0  0  0  0  0
   -0.9921  -47.0009    7.4501 H   0  0  0  0  0  0  0  0  0  0  0  0
    0.6712  -46.3847    7.7335 H   0  0  0  0  0  0  0  0  0  0  0  0
   -0.8481  -44.4941    7.6770 H   0  0  0  0  0  0  0  0  0  0  0  0
    0.1457  -44.4598    6.1811 H   0  0  0  0  0  0  0  0  0  0  0  0
   -2.3761  -45.5991    8.5686 H   0  0  0  0  0  0  0  0  0  0  0  0
   -4.7452  -45.1298   10.5429 H   0  0  0  0  0  0  0  0  0  0  0  0
   -5.6247  -46.6034   10.0125 H   0  0  0  0  0  0  0  0  0  0  0  0
   -3.8392  -46.6434   10.2042 H   0  0  0  0  0  0  0  0  0  0  0  0
   -6.9767  -43.7698    5.3962 H   0  0  0  0  0  0  0  0  0  0  0  0
   -6.4042  -45.1083    4.3441 H   0  0  0  0  0  0  0  0  0  0  0  0
   -7.5152  -45.4540    5.7126 H   0  0  0  0  0  0  0  0  0  0  0  0
   -4.0514  -44.6649    4.7162 H   0  0  0  0  0  0  0  0  0  0  0  0
  1  2  2  0  0  0  0
  2  3  1  0  0  0  0
  2  4  1  0  0  0  0
  4 11  2  0  0  0  0
  4 26  1  0  0  0  0
  5  6  1  0  0  0  0
  5 10  1  0  0  0  0
  5 26  2  0  0  0  0
  6  7  2  0  0  0  0
  7  8  1  0  0  0  0
  8  9  1  0  0  0  0
  9 10  2  0  0  0  0
  9 25  1  0  0  0  0
 10 11  1  0  0  0  0
 11 12  1  0  0  0  0
 12 13  1  0  0  0  0
 13 14  1  0  0  0  0
 14 15  1  0  0  0  0
 15 16  1  0  0  0  0
 16 17  2  0  0  0  0
 16 24  1  0  0  0  0
 17 18  1  0  0  0  0
 18 19  1  0  0  0  0
 18 20  2  0  0  0  0
 20 21  1  0  0  0  0
 20 22  1  0  0  0  0
 22 23  1  0  0  0  0
 22 24  2  0  0  0  0
  3 27  1  0  0  0  0
  6 28  1  0  0  0  0
  7 29  1  0  0  0  0
  8 30  1  0  0  0  0
  8 31  1  0  0  0  0
 12 32  1  0  0  0  0
 12 33  1  0  0  0  0
 13 34  1  0  0  0  0
 13 35  1  0  0  0  0
 14 36  1  0  0  0  0
 14 37  1  0  0  0  0
 17 38  1  0  0  0  0
 19 39  1  0  0  0  0
 19 40  1  0  0  0  0
 19 41  1  0  0  0  0
 23 42  1  0  0  0  0
 23 43  1  0  0  0  0
 23 44  1  0  0  0  0
 24 45  1  0  0  0  0
M  END
> <r_user_dG.exp>
-9.32829709690352

$$$$
50
  -OEChem-05192314073D
 Structure written by MMmdl.
 45 47  0     0  0  0  0  0  0999 V2000
    3.7793  -49.8551    7.0486 O   0  0  0  0  0  0  0  0  0  0  0  0
    2.9869  -48.9536    6.6755 C   0  0  0  0  0  0  0  0  0  0  0  0
    3.3674  -47.7712    6.5283 O   0  0  0  0  0  0  0  0  0  0  0  0
    1.5743  -49.3351    6.4116 C   0  0  0  0  0  0  0  0  0  0  0  0
   -0.1186  -50.8654    6.3660 C   0  0  0  0  0  0  0  0  0  0  0  0
   -0.9353  -52.0079    6.4726 C   0  0  0  0  0  0  0  0  0  0  0  0
   -2.2983  -51.9243    6.1497 C   0  0  0  0  0  0  0  0  0  0  0  0
   -2.8394  -50.6992    5.7155 C   0  0  0  0  0  0  0  0  0  0  0  0
   -2.0219  -49.5504    5.6229 C   0  0  0  0  0  0  0  0  0  0  0  0
   -0.6359  -49.6058    5.9539 C   0  0  0  0  0  0  0  0  0  0  0  0
    0.4437  -48.6413    6.0163 C   0  0  0  0  0  0  0  0  0  0  0  0
    0.3299  -47.1710    5.7539 C   0  0  0  0  0  0  0  0  0  0  0  0
   -0.1581  -46.4326    7.0125 C   0  0  0  0  0  0  0  0  0  0  0  0
   -0.6377  -45.0064    6.7266 C   0  0  0  0  0  0  0  0  0  0  0  0
   -1.8216  -45.0466    5.9392 O   0  0  0  0  0  0  0  0  0  0  0  0
   -3.0478  -45.1371    6.5648 C   0  0  0  0  0  0  0  0  0  0  0  0
   -3.2350  -45.4603    7.9288 C   0  0  0  0  0  0  0  0  0  0  0  0
   -4.5322  -45.6029    8.4606 C   0  0  0  0  0  0  0  0  0  0  0  0
   -4.6965  -46.0234    9.9032 C   0  0  0  0  0  0  0  0  0  0  0  0
   -5.6613  -45.3986    7.6394 C   0  0  0  0  0  0  0  0  0  0  0  0
   -7.2509  -45.6153    8.2746 Cl  0  0  0  0  0  0  0  0  0  0  0  0
   -5.4842  -45.0381    6.2876 C   0  0  0  0  0  0  0  0  0  0  0  0
   -6.6772  -44.8280    5.3721 C   0  0  0  0  0  0  0  0  0  0  0  0
   -4.1811  -44.9222    5.7571 C   0  0  0  0  0  0  0  0  0  0  0  0
   -2.7591  -48.0672    5.1129 Cl  0  0  0  0  0  0  0  0  0  0  0  0
    1.2283  -50.6666    6.6110 N   0  0  0  0  0  0  0  0  0  0  0  0
    3.3153  -50.6822    7.1039 H   0  0  0  0  0  0  0  0  0  0  0  0
    2.6360  -47.2358    6.2439 H   0  0  0  0  0  0  0  0  0  0  0  0
   -0.5136  -52.9460    6.8020 H   0  0  0  0  0  0  0  0  0  0  0  0
   -2.9298  -52.7964    6.2339 H   0  0  0  0  0  0  0  0  0  0  0  0
   -3.8849  -50.6371    5.4518 H   0  0  0  0  0  0  0  0  0  0  0  0
    1.3155  -46.7782    5.4636 H   0  0  0  0  0  0  0  0  0  0  0  0
   -0.3867  -47.0041    4.9362 H   0  0  0  0  0  0  0  0  0  0  0  0
   -0.9921  -47.0009    7.4501 H   0  0  0  0  0  0  0  0  0  0  0  0
    0.6712  -46.3847    7.7335 H   0  0  0  0  0  0  0  0  0  0  0  0
   -0.8481  -44.4941    7.6770 H   0  0  0  0  0  0  0  0  0  0  0  0
    0.1457  -44.4598    6.1811 H   0  0  0  0  0  0  0  0  0  0  0  0
   -2.3761  -45.5991    8.5686 H   0  0  0  0  0  0  0  0  0  0  0  0
   -4.7452  -45.1298   10.5429 H   0  0  0  0  0  0  0  0  0  0  0  0
   -5.6247  -46.6034   10.0125 H   0  0  0  0  0  0  0  0  0  0  0  0
   -3.8392  -46.6434   10.2042 H   0  0  0  0  0  0  0  0  0  0  0  0
   -6.9767  -43.7698    5.3962 H   0  0  0  0  0  0  0  0  0  0  0  0
   -6.4042  -45.1083    4.3441 H   0  0  0  0  0  0  0  0  0  0  0  0
   -7.5152  -45.4540    5.7126 H   0  0  0  0  0  0  0  0  0  0  0  0
   -4.0514  -44.6649    4.7162 H   0  0  0  0  0  0  0  0  0  0  0  0
  1  2  1  0  0  0  0
  2  3  1  0  0  0  0
  2  4  2  0  0  0  0
  4 11  1  0  0  0  0
  4 26  1  0  0  0  0
  5  6  1  0  0  0  0
  5 10  1  0  0  0  0
  5 26  2  0  0  0  0
  6  7  2  0  0  0  0
  7  8  1  0  0  0  0
  8  9  2  0  0  0  0
  9 10  1  0  0  0  0
  9 25  1  0  0  0  0
 10 11  2  0  0  0  0
 11 12  1  0  0  0  0
 12 13  1  0  0  0  0
 13 14  1  0  0  0  0
 14 15  1  0  0  0  0
 15 16  1  0  0  0  0
 16 17  2  0  0  0  0
 16 24  1  0  0  0  0
 17 18  1  0  0  0  0
 18 19  1  0  0  0  0
 18 20  2  0  0  0  0
 20 21  1  0  0  0  0
 20 22  1  0  0  0  0
 22 23  1  0  0  0  0
 22 24  2  0  0  0  0
  1 27  1  0  0  0  0
  3 28  1  0  0  0  0
  6 29  1  0  0  0  0
  7 30  1  0  0  0  0
  8 31  1  0  0  0  0
 12 32  1  0  0  0  0
 12 33  1  0  0  0  0
 13 34  1  0  0  0  0
 13 35  1  0  0  0  0
 14 36  1  0  0  0  0
 14 37  1  0  0  0  0
 17 38  1  0  0  0  0
 19 39  1  0  0  0  0
 19 40  1  0  0  0  0
 19 41  1  0  0  0  0
 23 42  1  0  0  0  0
 23 43  1  0  0  0  0
 23 44  1  0  0  0  0
 24 45  1  0  0  0  0
M  END
> <r_user_dG.exp>
-9.32829709690352

$$$$
