37
  -OEChem-05192314073D
 Structure written by MMmdl.
 45 47  0     0  0  0  0  0  0999 V2000
    3.8718  -50.2361    7.2245 O   0  0  0  0  0  0  0  0  0  0  0  0
    3.1316  -49.2780    6.8995 C   0  0  0  0  0  0  0  0  0  0  0  0
    3.5610  -48.1075    6.8535 O   0  0  0  0  0  0  0  0  0  0  0  0
    1.7186  -49.5691    6.5705 C   0  0  0  0  0  0  0  0  0  0  0  0
   -0.0592  -50.9948    6.4011 C   0  0  0  0  0  0  0  0  0  0  0  0
   -0.9536  -52.0849    6.4146 C   0  0  0  0  0  0  0  0  0  0  0  0
   -2.3089  -51.8726    6.0773 C   0  0  0  0  0  0  0  0  0  0  0  0
   -2.7528  -50.5878    5.7200 C   0  0  0  0  0  0  0  0  0  0  0  0
   -1.8514  -49.5039    5.7068 C   0  0  0  0  0  0  0  0  0  0  0  0
   -0.4753  -49.6825    6.0507 C   0  0  0  0  0  0  0  0  0  0  0  0
    0.6554  -48.7964    6.1719 C   0  0  0  0  0  0  0  0  0  0  0  0
    0.6195  -47.3137    5.9496 C   0  0  0  0  0  0  0  0  0  0  0  0
    0.2592  -46.5733    7.2461 C   0  0  0  0  0  0  0  0  0  0  0  0
   -0.2682  -45.1542    7.0159 C   0  0  0  0  0  0  0  0  0  0  0  0
   -1.4266  -45.1828    6.1895 O   0  0  0  0  0  0  0  0  0  0  0  0
   -2.6770  -45.3015    6.7518 C   0  0  0  0  0  0  0  0  0  0  0  0
   -2.9170  -45.6759    8.0958 C   0  0  0  0  0  0  0  0  0  0  0  0
   -4.2343  -45.8324    8.5752 C   0  0  0  0  0  0  0  0  0  0  0  0
   -4.4648  -46.3044    9.9964 C   0  0  0  0  0  0  0  0  0  0  0  0
   -5.3341  -45.5816    7.7206 C   0  0  0  0  0  0  0  0  0  0  0  0
   -6.9496  -45.7880    8.3010 Cl  0  0  0  0  0  0  0  0  0  0  0  0
   -5.0974  -45.1838    6.3837 C   0  0  0  0  0  0  0  0  0  0  0  0
   -6.2586  -44.9543    5.4353 C   0  0  0  0  0  0  0  0  0  0  0  0
   -3.7754  -45.0569    5.9068 C   0  0  0  0  0  0  0  0  0  0  0  0
    1.2925  -50.8807    6.6907 N   0  0  0  0  0  0  0  0  0  0  0  0
    4.4800  -48.0972    7.0940 H   0  0  0  0  0  0  0  0  0  0  0  0
   -0.6059  -53.0723    6.6802 H   0  0  0  0  0  0  0  0  0  0  0  0
   -3.0047  -52.6984    6.0940 H   0  0  0  0  0  0  0  0  0  0  0  0
   -3.7878  -50.4304    5.4547 H   0  0  0  0  0  0  0  0  0  0  0  0
   -2.2066  -48.5217    5.4321 H   0  0  0  0  0  0  0  0  0  0  0  0
    1.6087  -46.9771    5.6057 H   0  0  0  0  0  0  0  0  0  0  0  0
   -0.1337  -47.0828    5.1819 H   0  0  0  0  0  0  0  0  0  0  0  0
   -0.5150  -47.1508    7.7726 H   0  0  0  0  0  0  0  0  0  0  0  0
    1.1608  -46.5117    7.8733 H   0  0  0  0  0  0  0  0  0  0  0  0
   -0.5255  -44.7016    7.9849 H   0  0  0  0  0  0  0  0  0  0  0  0
    0.5117  -44.5528    6.5259 H   0  0  0  0  0  0  0  0  0  0  0  0
   -2.0828  -45.8434    8.7610 H   0  0  0  0  0  0  0  0  0  0  0  0
   -4.5326  -45.4342   10.6659 H   0  0  0  0  0  0  0  0  0  0  0  0
   -5.4022  -46.8779   10.0447 H   0  0  0  0  0  0  0  0  0  0  0  0
   -3.6270  -46.9442   10.3106 H   0  0  0  0  0  0  0  0  0  0  0  0
   -6.5622  -43.8978    5.4754 H   0  0  0  0  0  0  0  0  0  0  0  0
   -5.9505  -45.2084    4.4104 H   0  0  0  0  0  0  0  0  0  0  0  0
   -7.1055  -45.5905    5.7320 H   0  0  0  0  0  0  0  0  0  0  0  0
   -3.6044  -44.7684    4.8802 H   0  0  0  0  0  0  0  0  0  0  0  0
    1.8817  -51.6453    6.9519 H   0  0  0  0  0  0  0  0  0  0  0  0
  1  2  2  0  0  0  0
  2  3  1  0  0  0  0
  2  4  1  0  0  0  0
  4 11  2  0  0  0  0
  4 25  1  0  0  0  0
  5  6  2  0  0  0  0
  5 10  1  0  0  0  0
  5 25  1  0  0  0  0
  6  7  1  0  0  0  0
  7  8  2  0  0  0  0
  8  9  1  0  0  0  0
  9 10  2  0  0  0  0
 10 11  1  0  0  0  0
 11 12  1  0  0  0  0
 12 13  1  0  0  0  0
 13 14  1  0  0  0  0
 14 15  1  0  0  0  0
 15 16  1  0  0  0  0
 16 17  2  0  0  0  0
 16 24  1  0  0  0  0
 17 18  1  0  0  0  0
 18 19  1  0  0  0  0
 18 20  2  0  0  0  0
 20 21  1  0  0  0  0
 20 22  1  0  0  0  0
 22 23  1  0  0  0  0
 22 24  2  0  0  0  0
  3 26  1  0  0  0  0
  6 27  1  0  0  0  0
  7 28  1  0  0  0  0
  8 29  1  0  0  0  0
  9 30  1  0  0  0  0
 12 31  1  0  0  0  0
 12 32  1  0  0  0  0
 13 33  1  0  0  0  0
 13 34  1  0  0  0  0
 14 35  1  0  0  0  0
 14 36  1  0  0  0  0
 17 37  1  0  0  0  0
 19 38  1  0  0  0  0
 19 39  1  0  0  0  0
 19 40  1  0  0  0  0
 23 41  1  0  0  0  0
 23 42  1  0  0  0  0
 23 43  1  0  0  0  0
 24 44  1  0  0  0  0
 25 45  1  0  0  0  0
M  END
> <r_user_dG.exp>
-8.95356461676206

$$$$
37
  -OEChem-05192314073D
 Structure written by MMmdl.
 45 47  0     1  0  0  0  0  0999 V2000
    3.8718  -50.2361    7.2245 O   0  0  0  0  0  0  0  0  0  0  0  0
    3.1316  -49.2780    6.8995 C   0  0  0  0  0  0  0  0  0  0  0  0
    3.5610  -48.1075    6.8535 O   0  0  0  0  0  0  0  0  0  0  0  0
    1.7186  -49.5691    6.5705 C   0  0  0  0  0  0  0  0  0  0  0  0
   -0.0592  -50.9948    6.4011 C   0  0  0  0  0  0  0  0  0  0  0  0
   -0.9536  -52.0849    6.4146 C   0  0  0  0  0  0  0  0  0  0  0  0
   -2.3089  -51.8726    6.0773 C   0  0  0  0  0  0  0  0  0  0  0  0
   -2.7528  -50.5878    5.7200 C   0  0  0  0  0  0  0  0  0  0  0  0
   -1.8514  -49.5039    5.7068 C   0  0  0  0  0  0  0  0  0  0  0  0
   -0.4753  -49.6825    6.0507 C   0  0  0  0  0  0  0  0  0  0  0  0
    0.6554  -48.7964    6.1719 C   0  0  3  0  0  0  0  0  0  0  0  0
    0.6195  -47.3137    5.9496 C   0  0  0  0  0  0  0  0  0  0  0  0
    0.2592  -46.5733    7.2461 C   0  0  0  0  0  0  0  0  0  0  0  0
   -0.2682  -45.1542    7.0159 C   0  0  0  0  0  0  0  0  0  0  0  0
   -1.4266  -45.1828    6.1895 O   0  0  0  0  0  0  0  0  0  0  0  0
   -2.6770  -45.3015    6.7518 C   0  0  0  0  0  0  0  0  0  0  0  0
   -2.9170  -45.6759    8.0958 C   0  0  0  0  0  0  0  0  0  0  0  0
   -4.2343  -45.8324    8.5752 C   0  0  0  0  0  0  0  0  0  0  0  0
   -4.4648  -46.3044    9.9964 C   0  0  0  0  0  0  0  0  0  0  0  0
   -5.3341  -45.5816    7.7206 C   0  0  0  0  0  0  0  0  0  0  0  0
   -6.9496  -45.7880    8.3010 Cl  0  0  0  0  0  0  0  0  0  0  0  0
   -5.0974  -45.1838    6.3837 C   0  0  0  0  0  0  0  0  0  0  0  0
   -6.2586  -44.9543    5.4353 C   0  0  0  0  0  0  0  0  0  0  0  0
   -3.7754  -45.0569    5.9068 C   0  0  0  0  0  0  0  0  0  0  0  0
    1.2925  -50.8807    6.6907 N   0  0  0  0  0  0  0  0  0  0  0  0
    4.4800  -48.0972    7.0940 H   0  0  0  0  0  0  0  0  0  0  0  0
   -0.6059  -53.0723    6.6802 H   0  0  0  0  0  0  0  0  0  0  0  0
   -3.0047  -52.6984    6.0940 H   0  0  0  0  0  0  0  0  0  0  0  0
   -3.7878  -50.4304    5.4547 H   0  0  0  0  0  0  0  0  0  0  0  0
   -2.2066  -48.5217    5.4321 H   0  0  0  0  0  0  0  0  0  0  0  0
    0.9142  -48.9611    5.1155 H   0  0  0  0  0  0  0  0  0  0  0  0
    1.6087  -46.9771    5.6057 H   0  0  0  0  0  0  0  0  0  0  0  0
   -0.1337  -47.0828    5.1819 H   0  0  0  0  0  0  0  0  0  0  0  0
   -0.5150  -47.1508    7.7726 H   0  0  0  0  0  0  0  0  0  0  0  0
    1.1608  -46.5117    7.8733 H   0  0  0  0  0  0  0  0  0  0  0  0
   -0.5255  -44.7016    7.9849 H   0  0  0  0  0  0  0  0  0  0  0  0
    0.5117  -44.5528    6.5259 H   0  0  0  0  0  0  0  0  0  0  0  0
   -2.0828  -45.8434    8.7610 H   0  0  0  0  0  0  0  0  0  0  0  0
   -4.5326  -45.4342   10.6659 H   0  0  0  0  0  0  0  0  0  0  0  0
   -5.4022  -46.8779   10.0447 H   0  0  0  0  0  0  0  0  0  0  0  0
   -3.6270  -46.9442   10.3106 H   0  0  0  0  0  0  0  0  0  0  0  0
   -6.5622  -43.8978    5.4754 H   0  0  0  0  0  0  0  0  0  0  0  0
   -5.9505  -45.2084    4.4104 H   0  0  0  0  0  0  0  0  0  0  0  0
   -7.1055  -45.5905    5.7320 H   0  0  0  0  0  0  0  0  0  0  0  0
   -3.6044  -44.7684    4.8802 H   0  0  0  0  0  0  0  0  0  0  0  0
  1  2  2  0  0  0  0
  2  3  1  0  0  0  0
  2  4  1  0  0  0  0
  4 11  1  0  0  0  0
  4 25  2  0  0  0  0
  5  6  2  0  0  0  0
  5 10  1  0  0  0  0
  5 25  1  0  0  0  0
  6  7  1  0  0  0  0
  7  8  2  0  0  0  0
  8  9  1  0  0  0  0
  9 10  2  0  0  0  0
 10 11  1  0  0  0  0
 11 12  1  0  0  0  0
 12 13  1  0  0  0  0
 13 14  1  0  0  0  0
 14 15  1  0  0  0  0
 15 16  1  0  0  0  0
 16 17  2  0  0  0  0
 16 24  1  0  0  0  0
 17 18  1  0  0  0  0
 18 19  1  0  0  0  0
 18 20  2  0  0  0  0
 20 21  1  0  0  0  0
 20 22  1  0  0  0  0
 22 23  1  0  0  0  0
 22 24  2  0  0  0  0
  3 26  1  0  0  0  0
  6 27  1  0  0  0  0
  7 28  1  0  0  0  0
  8 29  1  0  0  0  0
  9 30  1  0  0  0  0
 11 31  1  0  0  0  0
 12 32  1  0  0  0  0
 12 33  1  0  0  0  0
 13 34  1  0  0  0  0
 13 35  1  0  0  0  0
 14 36  1  0  0  0  0
 14 37  1  0  0  0  0
 17 38  1  0  0  0  0
 19 39  1  0  0  0  0
 19 40  1  0  0  0  0
 19 41  1  0  0  0  0
 23 42  1  0  0  0  0
 23 43  1  0  0  0  0
 23 44  1  0  0  0  0
 24 45  1  0  0  0  0
M  END
> <r_user_dG.exp>
-8.95356461676206

$$$$
37
  -OEChem-05192314073D
 Structure written by MMmdl.
 45 47  0     1  0  0  0  0  0999 V2000
    3.8718  -50.2361    7.2245 O   0  0  0  0  0  0  0  0  0  0  0  0
    3.1316  -49.2780    6.8995 C   0  0  0  0  0  0  0  0  0  0  0  0
    3.5610  -48.1075    6.8535 O   0  0  0  0  0  0  0  0  0  0  0  0
    1.7186  -49.5691    6.5705 C   0  0  3  0  0  0  0  0  0  0  0  0
   -0.0592  -50.9948    6.4011 C   0  0  0  0  0  0  0  0  0  0  0  0
   -0.9536  -52.0849    6.4146 C   0  0  0  0  0  0  0  0  0  0  0  0
   -2.3089  -51.8726    6.0773 C   0  0  0  0  0  0  0  0  0  0  0  0
   -2.7528  -50.5878    5.7200 C   0  0  0  0  0  0  0  0  0  0  0  0
   -1.8514  -49.5039    5.7068 C   0  0  0  0  0  0  0  0  0  0  0  0
   -0.4753  -49.6825    6.0507 C   0  0  0  0  0  0  0  0  0  0  0  0
    0.6554  -48.7964    6.1719 C   0  0  0  0  0  0  0  0  0  0  0  0
    0.6195  -47.3137    5.9496 C   0  0  0  0  0  0  0  0  0  0  0  0
    0.2592  -46.5733    7.2461 C   0  0  0  0  0  0  0  0  0  0  0  0
   -0.2682  -45.1542    7.0159 C   0  0  0  0  0  0  0  0  0  0  0  0
   -1.4266  -45.1828    6.1895 O   0  0  0  0  0  0  0  0  0  0  0  0
   -2.6770  -45.3015    6.7518 C   0  0  0  0  0  0  0  0  0  0  0  0
   -2.9170  -45.6759    8.0958 C   0  0  0  0  0  0  0  0  0  0  0  0
   -4.2343  -45.8324    8.5752 C   0  0  0  0  0  0  0  0  0  0  0  0
   -4.4648  -46.3044    9.9964 C   0  0  0  0  0  0  0  0  0  0  0  0
   -5.3341  -45.5816    7.7206 C   0  0  0  0  0  0  0  0  0  0  0  0
   -6.9496  -45.7880    8.3010 Cl  0  0  0  0  0  0  0  0  0  0  0  0
   -5.0974  -45.1838    6.3837 C   0  0  0  0  0  0  0  0  0  0  0  0
   -6.2586  -44.9543    5.4353 C   0  0  0  0  0  0  0  0  0  0  0  0
   -3.7754  -45.0569    5.9068 C   0  0  0  0  0  0  0  0  0  0  0  0
    1.2925  -50.8807    6.6907 N   0  0  0  0  0  0  0  0  0  0  0  0
    4.4800  -48.0972    7.0940 H   0  0  0  0  0  0  0  0  0  0  0  0
    1.9927  -49.7468    5.5201 H   0  0  0  0  0  0  0  0  0  0  0  0
   -0.6059  -53.0723    6.6802 H   0  0  0  0  0  0  0  0  0  0  0  0
   -3.0047  -52.6984    6.0940 H   0  0  0  0  0  0  0  0  0  0  0  0
   -3.7878  -50.4304    5.4547 H   0  0  0  0  0  0  0  0  0  0  0  0
   -2.2066  -48.5217    5.4321 H   0  0  0  0  0  0  0  0  0  0  0  0
    1.6087  -46.9771    5.6057 H   0  0  0  0  0  0  0  0  0  0  0  0
   -0.1337  -47.0828    5.1819 H   0  0  0  0  0  0  0  0  0  0  0  0
   -0.5150  -47.1508    7.7726 H   0  0  0  0  0  0  0  0  0  0  0  0
    1.1608  -46.5117    7.8733 H   0  0  0  0  0  0  0  0  0  0  0  0
   -0.5255  -44.7016    7.9849 H   0  0  0  0  0  0  0  0  0  0  0  0
    0.5117  -44.5528    6.5259 H   0  0  0  0  0  0  0  0  0  0  0  0
   -2.0828  -45.8434    8.7610 H   0  0  0  0  0  0  0  0  0  0  0  0
   -4.5326  -45.4342   10.6659 H   0  0  0  0  0  0  0  0  0  0  0  0
   -5.4022  -46.8779   10.0447 H   0  0  0  0  0  0  0  0  0  0  0  0
   -3.6270  -46.9442   10.3106 H   0  0  0  0  0  0  0  0  0  0  0  0
   -6.5622  -43.8978    5.4754 H   0  0  0  0  0  0  0  0  0  0  0  0
   -5.9505  -45.2084    4.4104 H   0  0  0  0  0  0  0  0  0  0  0  0
   -7.1055  -45.5905    5.7320 H   0  0  0  0  0  0  0  0  0  0  0  0
   -3.6044  -44.7684    4.8802 H   0  0  0  0  0  0  0  0  0  0  0  0
  1  2  2  0  0  0  0
  2  3  1  0  0  0  0
  2  4  1  0  0  0  0
  4 11  1  0  0  0  0
  4 25  1  0  0  0  0
  5  6  1  0  0  0  0
  5 10  1  0  0  0  0
  5 25  2  0  0  0  0
  6  7  2  0  0  0  0
  7  8  1  0  0  0  0
  8  9  2  0  0  0  0
  9 10  1  0  0  0  0
 10 11  2  0  0  0  0
 11 12  1  0  0  0  0
 12 13  1  0  0  0  0
 13 14  1  0  0  0  0
 14 15  1  0  0  0  0
 15 16  1  0  0  0  0
 16 17  2  0  0  0  0
 16 24  1  0  0  0  0
 17 18  1  0  0  0  0
 18 19  1  0  0  0  0
 18 20  2  0  0  0  0
 20 21  1  0  0  0  0
 20 22  1  0  0  0  0
 22 23  1  0  0  0  0
 22 24  2  0  0  0  0
  3 26  1  0  0  0  0
  4 27  1  0  0  0  0
  6 28  1  0  0  0  0
  7 29  1  0  0  0  0
  8 30  1  0  0  0  0
  9 31  1  0  0  0  0
 12 32  1  0  0  0  0
 12 33  1  0  0  0  0
 13 34  1  0  0  0  0
 13 35  1  0  0  0  0
 14 36  1  0  0  0  0
 14 37  1  0  0  0  0
 17 38  1  0  0  0  0
 19 39  1  0  0  0  0
 19 40  1  0  0  0  0
 19 41  1  0  0  0  0
 23 42  1  0  0  0  0
 23 43  1  0  0  0  0
 23 44  1  0  0  0  0
 24 45  1  0  0  0  0
M  END
> <r_user_dG.exp>
-8.95356461676206

$$$$
37
  -OEChem-05192314073D
 Structure written by MMmdl.
 45 47  0     1  0  0  0  0  0999 V2000
    3.8718  -50.2361    7.2245 O   0  0  0  0  0  0  0  0  0  0  0  0
    3.1316  -49.2780    6.8995 C   0  0  0  0  0  0  0  0  0  0  0  0
    3.5610  -48.1075    6.8535 O   0  0  0  0  0  0  0  0  0  0  0  0
    1.7186  -49.5691    6.5705 C   0  0  0  0  0  0  0  0  0  0  0  0
   -0.0592  -50.9948    6.4011 C   0  0  0  0  0  0  0  0  0  0  0  0
   -0.9536  -52.0849    6.4146 C   0  0  0  0  0  0  0  0  0  0  0  0
   -2.3089  -51.8726    6.0773 C   0  0  0  0  0  0  0  0  0  0  0  0
   -2.7528  -50.5878    5.7200 C   0  0  0  0  0  0  0  0  0  0  0  0
   -1.8514  -49.5039    5.7068 C   0  0  0  0  0  0  0  0  0  0  0  0
   -0.4753  -49.6825    6.0507 C   0  0  3  0  0  0  0  0  0  0  0  0
    0.6554  -48.7964    6.1719 C   0  0  0  0  0  0  0  0  0  0  0  0
    0.6195  -47.3137    5.9496 C   0  0  0  0  0  0  0  0  0  0  0  0
    0.2592  -46.5733    7.2461 C   0  0  0  0  0  0  0  0  0  0  0  0
   -0.2682  -45.1542    7.0159 C   0  0  0  0  0  0  0  0  0  0  0  0
   -1.4266  -45.1828    6.1895 O   0  0  0  0  0  0  0  0  0  0  0  0
   -2.6770  -45.3015    6.7518 C   0  0  0  0  0  0  0  0  0  0  0  0
   -2.9170  -45.6759    8.0958 C   0  0  0  0  0  0  0  0  0  0  0  0
   -4.2343  -45.8324    8.5752 C   0  0  0  0  0  0  0  0  0  0  0  0
   -4.4648  -46.3044    9.9964 C   0  0  0  0  0  0  0  0  0  0  0  0
   -5.3341  -45.5816    7.7206 C   0  0  0  0  0  0  0  0  0  0  0  0
   -6.9496  -45.7880    8.3010 Cl  0  0  0  0  0  0  0  0  0  0  0  0
   -5.0974  -45.1838    6.3837 C   0  0  0  0  0  0  0  0  0  0  0  0
   -6.2586  -44.9543    5.4353 C   0  0  0  0  0  0  0  0  0  0  0  0
   -3.7754  -45.0569    5.9068 C   0  0  0  0  0  0  0  0  0  0  0  0
    1.2925  -50.8807    6.6907 N   0  0  0  0  0  0  0  0  0  0  0  0
    4.4800  -48.0972    7.0940 H   0  0  0  0  0  0  0  0  0  0  0  0
   -0.6059  -53.0723    6.6802 H   0  0  0  0  0  0  0  0  0  0  0  0
   -3.0047  -52.6984    6.0940 H   0  0  0  0  0  0  0  0  0  0  0  0
   -3.7878  -50.4304    5.4547 H   0  0  0  0  0  0  0  0  0  0  0  0
   -2.2066  -48.5217    5.4321 H   0  0  0  0  0  0  0  0  0  0  0  0
   -0.2258  -49.8735    4.9965 H   0  0  0  0  0  0  0  0  0  0  0  0
    1.6087  -46.9771    5.6057 H   0  0  0  0  0  0  0  0  0  0  0  0
   -0.1337  -47.0828    5.1819 H   0  0  0  0  0  0  0  0  0  0  0  0
   -0.5150  -47.1508    7.7726 H   0  0  0  0  0  0  0  0  0  0  0  0
    1.1608  -46.5117    7.8733 H   0  0  0  0  0  0  0  0  0  0  0  0
   -0.5255  -44.7016    7.9849 H   0  0  0  0  0  0  0  0  0  0  0  0
    0.5117  -44.5528    6.5259 H   0  0  0  0  0  0  0  0  0  0  0  0
   -2.0828  -45.8434    8.7610 H   0  0  0  0  0  0  0  0  0  0  0  0
   -4.5326  -45.4342   10.6659 H   0  0  0  0  0  0  0  0  0  0  0  0
   -5.4022  -46.8779   10.0447 H   0  0  0  0  0  0  0  0  0  0  0  0
   -3.6270  -46.9442   10.3106 H   0  0  0  0  0  0  0  0  0  0  0  0
   -6.5622  -43.8978    5.4754 H   0  0  0  0  0  0  0  0  0  0  0  0
   -5.9505  -45.2084    4.4104 H   0  0  0  0  0  0  0  0  0  0  0  0
   -7.1055  -45.5905    5.7320 H   0  0  0  0  0  0  0  0  0  0  0  0
   -3.6044  -44.7684    4.8802 H   0  0  0  0  0  0  0  0  0  0  0  0
  1  2  2  0  0  0  0
  2  3  1  0  0  0  0
  2  4  1  0  0  0  0
  4 11  2  0  0  0  0
  4 25  1  0  0  0  0
  5  6  1  0  0  0  0
  5 10  1  0  0  0  0
  5 25  2  0  0  0  0
  6  7  2  0  0  0  0
  7  8  1  0  0  0  0
  8  9  2  0  0  0  0
  9 10  1  0  0  0  0
 10 11  1  0  0  0  0
 11 12  1  0  0  0  0
 12 13  1  0  0  0  0
 13 14  1  0  0  0  0
 14 15  1  0  0  0  0
 15 16  1  0  0  0  0
 16 17  2  0  0  0  0
 16 24  1  0  0  0  0
 17 18  1  0  0  0  0
 18 19  1  0  0  0  0
 18 20  2  0  0  0  0
 20 21  1  0  0  0  0
 20 22  1  0  0  0  0
 22 23  1  0  0  0  0
 22 24  2  0  0  0  0
  3 26  1  0  0  0  0
  6 27  1  0  0  0  0
  7 28  1  0  0  0  0
  8 29  1  0  0  0  0
  9 30  1  0  0  0  0
 10 31  1  0  0  0  0
 12 32  1  0  0  0  0
 12 33  1  0  0  0  0
 13 34  1  0  0  0  0
 13 35  1  0  0  0  0
 14 36  1  0  0  0  0
 14 37  1  0  0  0  0
 17 38  1  0  0  0  0
 19 39  1  0  0  0  0
 19 40  1  0  0  0  0
 19 41  1  0  0  0  0
 23 42  1  0  0  0  0
 23 43  1  0  0  0  0
 23 44  1  0  0  0  0
 24 45  1  0  0  0  0
M  END
> <r_user_dG.exp>
-8.95356461676206

$$$$
37
  -OEChem-05192314073D
 Structure written by MMmdl.
 45 47  0     1  0  0  0  0  0999 V2000
    3.8718  -50.2361    7.2245 O   0  0  0  0  0  0  0  0  0  0  0  0
    3.1316  -49.2780    6.8995 C   0  0  0  0  0  0  0  0  0  0  0  0
    3.5610  -48.1075    6.8535 O   0  0  0  0  0  0  0  0  0  0  0  0
    1.7186  -49.5691    6.5705 C   0  0  0  0  0  0  0  0  0  0  0  0
   -0.0592  -50.9948    6.4011 C   0  0  3  0  0  0  0  0  0  0  0  0
   -0.9536  -52.0849    6.4146 C   0  0  0  0  0  0  0  0  0  0  0  0
   -2.3089  -51.8726    6.0773 C   0  0  0  0  0  0  0  0  0  0  0  0
   -2.7528  -50.5878    5.7200 C   0  0  0  0  0  0  0  0  0  0  0  0
   -1.8514  -49.5039    5.7068 C   0  0  0  0  0  0  0  0  0  0  0  0
   -0.4753  -49.6825    6.0507 C   0  0  0  0  0  0  0  0  0  0  0  0
    0.6554  -48.7964    6.1719 C   0  0  0  0  0  0  0  0  0  0  0  0
    0.6195  -47.3137    5.9496 C   0  0  0  0  0  0  0  0  0  0  0  0
    0.2592  -46.5733    7.2461 C   0  0  0  0  0  0  0  0  0  0  0  0
   -0.2682  -45.1542    7.0159 C   0  0  0  0  0  0  0  0  0  0  0  0
   -1.4266  -45.1828    6.1895 O   0  0  0  0  0  0  0  0  0  0  0  0
   -2.6770  -45.3015    6.7518 C   0  0  0  0  0  0  0  0  0  0  0  0
   -2.9170  -45.6759    8.0958 C   0  0  0  0  0  0  0  0  0  0  0  0
   -4.2343  -45.8324    8.5752 C   0  0  0  0  0  0  0  0  0  0  0  0
   -4.4648  -46.3044    9.9964 C   0  0  0  0  0  0  0  0  0  0  0  0
   -5.3341  -45.5816    7.7206 C   0  0  0  0  0  0  0  0  0  0  0  0
   -6.9496  -45.7880    8.3010 Cl  0  0  0  0  0  0  0  0  0  0  0  0
   -5.0974  -45.1838    6.3837 C   0  0  0  0  0  0  0  0  0  0  0  0
   -6.2586  -44.9543    5.4353 C   0  0  0  0  0  0  0  0  0  0  0  0
   -3.7754  -45.0569    5.9068 C   0  0  0  0  0  0  0  0  0  0  0  0
    1.2925  -50.8807    6.6907 N   0  0  0  0  0  0  0  0  0  0  0  0
    4.4800  -48.0972    7.0940 H   0  0  0  0  0  0  0  0  0  0  0  0
    0.1815  -51.2022    5.3480 H   0  0  0  0  0  0  0  0  0  0  0  0
   -0.6059  -53.0723    6.6802 H   0  0  0  0  0  0  0  0  0  0  0  0
   -3.0047  -52.6984    6.0940 H   0  0  0  0  0  0  0  0  0  0  0  0
   -3.7878  -50.4304    5.4547 H   0  0  0  0  0  0  0  0  0  0  0  0
   -2.2066  -48.5217    5.4321 H   0  0  0  0  0  0  0  0  0  0  0  0
    1.6087  -46.9771    5.6057 H   0  0  0  0  0  0  0  0  0  0  0  0
   -0.1337  -47.0828    5.1819 H   0  0  0  0  0  0  0  0  0  0  0  0
   -0.5150  -47.1508    7.7726 H   0  0  0  0  0  0  0  0  0  0  0  0
    1.1608  -46.5117    7.8733 H   0  0  0  0  0  0  0  0  0  0  0  0
   -0.5255  -44.7016    7.9849 H   0  0  0  0  0  0  0  0  0  0  0  0
    0.5117  -44.5528    6.5259 H   0  0  0  0  0  0  0  0  0  0  0  0
   -2.0828  -45.8434    8.7610 H   0  0  0  0  0  0  0  0  0  0  0  0
   -4.5326  -45.4342   10.6659 H   0  0  0  0  0  0  0  0  0  0  0  0
   -5.4022  -46.8779   10.0447 H   0  0  0  0  0  0  0  0  0  0  0  0
   -3.6270  -46.9442   10.3106 H   0  0  0  0  0  0  0  0  0  0  0  0
   -6.5622  -43.8978    5.4754 H   0  0  0  0  0  0  0  0  0  0  0  0
   -5.9505  -45.2084    4.4104 H   0  0  0  0  0  0  0  0  0  0  0  0
   -7.1055  -45.5905    5.7320 H   0  0  0  0  0  0  0  0  0  0  0  0
   -3.6044  -44.7684    4.8802 H   0  0  0  0  0  0  0  0  0  0  0  0
  1  2  2  0  0  0  0
  2  3  1  0  0  0  0
  2  4  1  0  0  0  0
  4 11  1  0  0  0  0
  4 25  2  0  0  0  0
  5  6  1  0  0  0  0
  5 10  1  0  0  0  0
  5 25  1  0  0  0  0
  6  7  2  0  0  0  0
  7  8  1  0  0  0  0
  8  9  2  0  0  0  0
  9 10  1  0  0  0  0
 10 11  2  0  0  0  0
 11 12  1  0  0  0  0
 12 13  1  0  0  0  0
 13 14  1  0  0  0  0
 14 15  1  0  0  0  0
 15 16  1  0  0  0  0
 16 17  2  0  0  0  0
 16 24  1  0  0  0  0
 17 18  1  0  0  0  0
 18 19  1  0  0  0  0
 18 20  2  0  0  0  0
 20 21  1  0  0  0  0
 20 22  1  0  0  0  0
 22 23  1  0  0  0  0
 22 24  2  0  0  0  0
  3 26  1  0  0  0  0
  5 27  1  0  0  0  0
  6 28  1  0  0  0  0
  7 29  1  0  0  0  0
  8 30  1  0  0  0  0
  9 31  1  0  0  0  0
 12 32  1  0  0  0  0
 12 33  1  0  0  0  0
 13 34  1  0  0  0  0
 13 35  1  0  0  0  0
 14 36  1  0  0  0  0
 14 37  1  0  0  0  0
 17 38  1  0  0  0  0
 19 39  1  0  0  0  0
 19 40  1  0  0  0  0
 19 41  1  0  0  0  0
 23 42  1  0  0  0  0
 23 43  1  0  0  0  0
 23 44  1  0  0  0  0
 24 45  1  0  0  0  0
M  END
> <r_user_dG.exp>
-8.95356461676206

$$$$
37
  -OEChem-05192314073D
 Structure written by MMmdl.
 45 47  0     0  0  0  0  0  0999 V2000
    3.8718  -50.2361    7.2245 O   0  0  0  0  0  0  0  0  0  0  0  0
    3.1316  -49.2780    6.8995 C   0  0  0  0  0  0  0  0  0  0  0  0
    3.5610  -48.1075    6.8535 O   0  0  0  0  0  0  0  0  0  0  0  0
    1.7186  -49.5691    6.5705 C   0  0  0  0  0  0  0  0  0  0  0  0
   -0.0592  -50.9948    6.4011 C   0  0  0  0  0  0  0  0  0  0  0  0
   -0.9536  -52.0849    6.4146 C   0  0  0  0  0  0  0  0  0  0  0  0
   -2.3089  -51.8726    6.0773 C   0  0  0  0  0  0  0  0  0  0  0  0
   -2.7528  -50.5878    5.7200 C   0  0  0  0  0  0  0  0  0  0  0  0
   -1.8514  -49.5039    5.7068 C   0  0  0  0  0  0  0  0  0  0  0  0
   -0.4753  -49.6825    6.0507 C   0  0  0  0  0  0  0  0  0  0  0  0
    0.6554  -48.7964    6.1719 C   0  0  0  0  0  0  0  0  0  0  0  0
    0.6195  -47.3137    5.9496 C   0  0  0  0  0  0  0  0  0  0  0  0
    0.2592  -46.5733    7.2461 C   0  0  0  0  0  0  0  0  0  0  0  0
   -0.2682  -45.1542    7.0159 C   0  0  0  0  0  0  0  0  0  0  0  0
   -1.4266  -45.1828    6.1895 O   0  0  0  0  0  0  0  0  0  0  0  0
   -2.6770  -45.3015    6.7518 C   0  0  0  0  0  0  0  0  0  0  0  0
   -2.9170  -45.6759    8.0958 C   0  0  0  0  0  0  0  0  0  0  0  0
   -4.2343  -45.8324    8.5752 C   0  0  0  0  0  0  0  0  0  0  0  0
   -4.4648  -46.3044    9.9964 C   0  0  0  0  0  0  0  0  0  0  0  0
   -5.3341  -45.5816    7.7206 C   0  0  0  0  0  0  0  0  0  0  0  0
   -6.9496  -45.7880    8.3010 Cl  0  0  0  0  0  0  0  0  0  0  0  0
   -5.0974  -45.1838    6.3837 C   0  0  0  0  0  0  0  0  0  0  0  0
   -6.2586  -44.9543    5.4353 C   0  0  0  0  0  0  0  0  0  0  0  0
   -3.7754  -45.0569    5.9068 C   0  0  0  0  0  0  0  0  0  0  0  0
    1.2925  -50.8807    6.6907 N   0  0  0  0  0  0  0  0  0  0  0  0
    4.4800  -48.0972    7.0940 H   0  0  0  0  0  0  0  0  0  0  0  0
   -0.6059  -53.0723    6.6802 H   0  0  0  0  0  0  0  0  0  0  0  0
   -3.0047  -52.6984    6.0940 H   0  0  0  0  0  0  0  0  0  0  0  0
   -3.1672  -50.6672    4.7041 H   0  0  0  0  0  0  0  0  0  0  0  0
   -3.5557  -50.3232    6.4238 H   0  0  0  0  0  0  0  0  0  0  0  0
   -2.2066  -48.5217    5.4321 H   0  0  0  0  0  0  0  0  0  0  0  0
    1.6087  -46.9771    5.6057 H   0  0  0  0  0  0  0  0  0  0  0  0
   -0.1337  -47.0828    5.1819 H   0  0  0  0  0  0  0  0  0  0  0  0
   -0.5150  -47.1508    7.7726 H   0  0  0  0  0  0  0  0  0  0  0  0
    1.1608  -46.5117    7.8733 H   0  0  0  0  0  0  0  0  0  0  0  0
   -0.5255  -44.7016    7.9849 H   0  0  0  0  0  0  0  0  0  0  0  0
    0.5117  -44.5528    6.5259 H   0  0  0  0  0  0  0  0  0  0  0  0
   -2.0828  -45.8434    8.7610 H   0  0  0  0  0  0  0  0  0  0  0  0
   -4.5326  -45.4342   10.6659 H   0  0  0  0  0  0  0  0  0  0  0  0
   -5.4022  -46.8779   10.0447 H   0  0  0  0  0  0  0  0  0  0  0  0
   -3.6270  -46.9442   10.3106 H   0  0  0  0  0  0  0  0  0  0  0  0
   -6.5622  -43.8978    5.4754 H   0  0  0  0  0  0  0  0  0  0  0  0
   -5.9505  -45.2084    4.4104 H   0  0  0  0  0  0  0  0  0  0  0  0
   -7.1055  -45.5905    5.7320 H   0  0  0  0  0  0  0  0  0  0  0  0
   -3.6044  -44.7684    4.8802 H   0  0  0  0  0  0  0  0  0  0  0  0
  1  2  2  0  0  0  0
  2  3  1  0  0  0  0
  2  4  1  0  0  0  0
  4 11  2  0  0  0  0
  4 25  1  0  0  0  0
  5  6  1  0  0  0  0
  5 10  1  0  0  0  0
  5 25  2  0  0  0  0
  6  7  2  0  0  0  0
  7  8  1  0  0  0  0
  8  9  1  0  0  0  0
  9 10  2  0  0  0  0
 10 11  1  0  0  0  0
 11 12  1  0  0  0  0
 12 13  1  0  0  0  0
 13 14  1  0  0  0  0
 14 15  1  0  0  0  0
 15 16  1  0  0  0  0
 16 17  2  0  0  0  0
 16 24  1  0  0  0  0
 17 18  1  0  0  0  0
 18 19  1  0  0  0  0
 18 20  2  0  0  0  0
 20 21  1  0  0  0  0
 20 22  1  0  0  0  0
 22 23  1  0  0  0  0
 22 24  2  0  0  0  0
  3 26  1  0  0  0  0
  6 27  1  0  0  0  0
  7 28  1  0  0  0  0
  8 29  1  0  0  0  0
  8 30  1  0  0  0  0
  9 31  1  0  0  0  0
 12 32  1  0  0  0  0
 12 33  1  0  0  0  0
 13 34  1  0  0  0  0
 13 35  1  0  0  0  0
 14 36  1  0  0  0  0
 14 37  1  0  0  0  0
 17 38  1  0  0  0  0
 19 39  1  0  0  0  0
 19 40  1  0  0  0  0
 19 41  1  0  0  0  0
 23 42  1  0  0  0  0
 23 43  1  0  0  0  0
 23 44  1  0  0  0  0
 24 45  1  0  0  0  0
M  END
> <r_user_dG.exp>
-8.95356461676206

$$$$
37
  -OEChem-05192314073D
 Structure written by MMmdl.
 45 47  0     0  0  0  0  0  0999 V2000
    3.8718  -50.2361    7.2245 O   0  0  0  0  0  0  0  0  0  0  0  0
    3.1316  -49.2780    6.8995 C   0  0  0  0  0  0  0  0  0  0  0  0
    3.5610  -48.1075    6.8535 O   0  0  0  0  0  0  0  0  0  0  0  0
    1.7186  -49.5691    6.5705 C   0  0  0  0  0  0  0  0  0  0  0  0
   -0.0592  -50.9948    6.4011 C   0  0  0  0  0  0  0  0  0  0  0  0
   -0.9536  -52.0849    6.4146 C   0  0  0  0  0  0  0  0  0  0  0  0
   -2.3089  -51.8726    6.0773 C   0  0  0  0  0  0  0  0  0  0  0  0
   -2.7528  -50.5878    5.7200 C   0  0  0  0  0  0  0  0  0  0  0  0
   -1.8514  -49.5039    5.7068 C   0  0  0  0  0  0  0  0  0  0  0  0
   -0.4753  -49.6825    6.0507 C   0  0  0  0  0  0  0  0  0  0  0  0
    0.6554  -48.7964    6.1719 C   0  0  0  0  0  0  0  0  0  0  0  0
    0.6195  -47.3137    5.9496 C   0  0  0  0  0  0  0  0  0  0  0  0
    0.2592  -46.5733    7.2461 C   0  0  0  0  0  0  0  0  0  0  0  0
   -0.2682  -45.1542    7.0159 C   0  0  0  0  0  0  0  0  0  0  0  0
   -1.4266  -45.1828    6.1895 O   0  0  0  0  0  0  0  0  0  0  0  0
   -2.6770  -45.3015    6.7518 C   0  0  0  0  0  0  0  0  0  0  0  0
   -2.9170  -45.6759    8.0958 C   0  0  0  0  0  0  0  0  0  0  0  0
   -4.2343  -45.8324    8.5752 C   0  0  0  0  0  0  0  0  0  0  0  0
   -4.4648  -46.3044    9.9964 C   0  0  0  0  0  0  0  0  0  0  0  0
   -5.3341  -45.5816    7.7206 C   0  0  0  0  0  0  0  0  0  0  0  0
   -6.9496  -45.7880    8.3010 Cl  0  0  0  0  0  0  0  0  0  0  0  0
   -5.0974  -45.1838    6.3837 C   0  0  0  0  0  0  0  0  0  0  0  0
   -6.2586  -44.9543    5.4353 C   0  0  0  0  0  0  0  0  0  0  0  0
   -3.7754  -45.0569    5.9068 C   0  0  0  0  0  0  0  0  0  0  0  0
    1.2925  -50.8807    6.6907 N   0  0  0  0  0  0  0  0  0  0  0  0
    4.4800  -48.0972    7.0940 H   0  0  0  0  0  0  0  0  0  0  0  0
   -0.6059  -53.0723    6.6802 H   0  0  0  0  0  0  0  0  0  0  0  0
   -2.5312  -52.5331    5.2262 H   0  0  0  0  0  0  0  0  0  0  0  0
   -2.9049  -52.1834    6.9480 H   0  0  0  0  0  0  0  0  0  0  0  0
   -3.7878  -50.4304    5.4547 H   0  0  0  0  0  0  0  0  0  0  0  0
   -2.2066  -48.5217    5.4321 H   0  0  0  0  0  0  0  0  0  0  0  0
    1.6087  -46.9771    5.6057 H   0  0  0  0  0  0  0  0  0  0  0  0
   -0.1337  -47.0828    5.1819 H   0  0  0  0  0  0  0  0  0  0  0  0
   -0.5150  -47.1508    7.7726 H   0  0  0  0  0  0  0  0  0  0  0  0
    1.1608  -46.5117    7.8733 H   0  0  0  0  0  0  0  0  0  0  0  0
   -0.5255  -44.7016    7.9849 H   0  0  0  0  0  0  0  0  0  0  0  0
    0.5117  -44.5528    6.5259 H   0  0  0  0  0  0  0  0  0  0  0  0
   -2.0828  -45.8434    8.7610 H   0  0  0  0  0  0  0  0  0  0  0  0
   -4.5326  -45.4342   10.6659 H   0  0  0  0  0  0  0  0  0  0  0  0
   -5.4022  -46.8779   10.0447 H   0  0  0  0  0  0  0  0  0  0  0  0
   -3.6270  -46.9442   10.3106 H   0  0  0  0  0  0  0  0  0  0  0  0
   -6.5622  -43.8978    5.4754 H   0  0  0  0  0  0  0  0  0  0  0  0
   -5.9505  -45.2084    4.4104 H   0  0  0  0  0  0  0  0  0  0  0  0
   -7.1055  -45.5905    5.7320 H   0  0  0  0  0  0  0  0  0  0  0  0
   -3.6044  -44.7684    4.8802 H   0  0  0  0  0  0  0  0  0  0  0  0
  1  2  2  0  0  0  0
  2  3  1  0  0  0  0
  2  4  1  0  0  0  0
  4 11  1  0  0  0  0
  4 25  2  0  0  0  0
  5  6  2  0  0  0  0
  5 10  1  0  0  0  0
  5 25  1  0  0  0  0
  6  7  1  0  0  0  0
  7  8  1  0  0  0  0
  8  9  2  0  0  0  0
  9 10  1  0  0  0  0
 10 11  2  0  0  0  0
 11 12  1  0  0  0  0
 12 13  1  0  0  0  0
 13 14  1  0  0  0  0
 14 15  1  0  0  0  0
 15 16  1  0  0  0  0
 16 17  2  0  0  0  0
 16 24  1  0  0  0  0
 17 18  1  0  0  0  0
 18 19  1  0  0  0  0
 18 20  2  0  0  0  0
 20 21  1  0  0  0  0
 20 22  1  0  0  0  0
 22 23  1  0  0  0  0
 22 24  2  0  0  0  0
  3 26  1  0  0  0  0
  6 27  1  0  0  0  0
  7 28  1  0  0  0  0
  7 29  1  0  0  0  0
  8 30  1  0  0  0  0
  9 31  1  0  0  0  0
 12 32  1  0  0  0  0
 12 33  1  0  0  0  0
 13 34  1  0  0  0  0
 13 35  1  0  0  0  0
 14 36  1  0  0  0  0
 14 37  1  0  0  0  0
 17 38  1  0  0  0  0
 19 39  1  0  0  0  0
 19 40  1  0  0  0  0
 19 41  1  0  0  0  0
 23 42  1  0  0  0  0
 23 43  1  0  0  0  0
 23 44  1  0  0  0  0
 24 45  1  0  0  0  0
M  END
> <r_user_dG.exp>
-8.95356461676206

$$$$
37
  -OEChem-05192314073D
 Structure written by MMmdl.
 45 47  0     0  0  0  0  0  0999 V2000
    3.8718  -50.2361    7.2245 O   0  0  0  0  0  0  0  0  0  0  0  0
    3.1316  -49.2780    6.8995 C   0  0  0  0  0  0  0  0  0  0  0  0
    3.5610  -48.1075    6.8535 O   0  0  0  0  0  0  0  0  0  0  0  0
    1.7186  -49.5691    6.5705 C   0  0  0  0  0  0  0  0  0  0  0  0
   -0.0592  -50.9948    6.4011 C   0  0  0  0  0  0  0  0  0  0  0  0
   -0.9536  -52.0849    6.4146 C   0  0  0  0  0  0  0  0  0  0  0  0
   -2.3089  -51.8726    6.0773 C   0  0  0  0  0  0  0  0  0  0  0  0
   -2.7528  -50.5878    5.7200 C   0  0  0  0  0  0  0  0  0  0  0  0
   -1.8514  -49.5039    5.7068 C   0  0  0  0  0  0  0  0  0  0  0  0
   -0.4753  -49.6825    6.0507 C   0  0  0  0  0  0  0  0  0  0  0  0
    0.6554  -48.7964    6.1719 C   0  0  0  0  0  0  0  0  0  0  0  0
    0.6195  -47.3137    5.9496 C   0  0  0  0  0  0  0  0  0  0  0  0
    0.2592  -46.5733    7.2461 C   0  0  0  0  0  0  0  0  0  0  0  0
   -0.2682  -45.1542    7.0159 C   0  0  0  0  0  0  0  0  0  0  0  0
   -1.4266  -45.1828    6.1895 O   0  0  0  0  0  0  0  0  0  0  0  0
   -2.6770  -45.3015    6.7518 C   0  0  0  0  0  0  0  0  0  0  0  0
   -2.9170  -45.6759    8.0958 C   0  0  0  0  0  0  0  0  0  0  0  0
   -4.2343  -45.8324    8.5752 C   0  0  0  0  0  0  0  0  0  0  0  0
   -4.4648  -46.3044    9.9964 C   0  0  0  0  0  0  0  0  0  0  0  0
   -5.3341  -45.5816    7.7206 C   0  0  0  0  0  0  0  0  0  0  0  0
   -6.9496  -45.7880    8.3010 Cl  0  0  0  0  0  0  0  0  0  0  0  0
   -5.0974  -45.1838    6.3837 C   0  0  0  0  0  0  0  0  0  0  0  0
   -6.2586  -44.9543    5.4353 C   0  0  0  0  0  0  0  0  0  0  0  0
   -3.7754  -45.0569    5.9068 C   0  0  0  0  0  0  0  0  0  0  0  0
    1.2925  -50.8807    6.6907 N   0  0  0  0  0  0  0  0  0  0  0  0
    4.4800  -48.0972    7.0940 H   0  0  0  0  0  0  0  0  0  0  0  0
   -0.5605  -52.8310    5.7084 H   0  0  0  0  0  0  0  0  0  0  0  0
   -0.9378  -52.5000    7.4331 H   0  0  0  0  0  0  0  0  0  0  0  0
   -3.0047  -52.6984    6.0940 H   0  0  0  0  0  0  0  0  0  0  0  0
   -3.7878  -50.4304    5.4547 H   0  0  0  0  0  0  0  0  0  0  0  0
   -2.2066  -48.5217    5.4321 H   0  0  0  0  0  0  0  0  0  0  0  0
    1.6087  -46.9771    5.6057 H   0  0  0  0  0  0  0  0  0  0  0  0
   -0.1337  -47.0828    5.1819 H   0  0  0  0  0  0  0  0  0  0  0  0
   -0.5150  -47.1508    7.7726 H   0  0  0  0  0  0  0  0  0  0  0  0
    1.1608  -46.5117    7.8733 H   0  0  0  0  0  0  0  0  0  0  0  0
   -0.5255  -44.7016    7.9849 H   0  0  0  0  0  0  0  0  0  0  0  0
    0.5117  -44.5528    6.5259 H   0  0  0  0  0  0  0  0  0  0  0  0
   -2.0828  -45.8434    8.7610 H   0  0  0  0  0  0  0  0  0  0  0  0
   -4.5326  -45.4342   10.6659 H   0  0  0  0  0  0  0  0  0  0  0  0
   -5.4022  -46.8779   10.0447 H   0  0  0  0  0  0  0  0  0  0  0  0
   -3.6270  -46.9442   10.3106 H   0  0  0  0  0  0  0  0  0  0  0  0
   -6.5622  -43.8978    5.4754 H   0  0  0  0  0  0  0  0  0  0  0  0
   -5.9505  -45.2084    4.4104 H   0  0  0  0  0  0  0  0  0  0  0  0
   -7.1055  -45.5905    5.7320 H   0  0  0  0  0  0  0  0  0  0  0  0
   -3.6044  -44.7684    4.8802 H   0  0  0  0  0  0  0  0  0  0  0  0
  1  2  2  0  0  0  0
  2  3  1  0  0  0  0
  2  4  1  0  0  0  0
  4 11  2  0  0  0  0
  4 25  1  0  0  0  0
  5  6  1  0  0  0  0
  5 10  1  0  0  0  0
  5 25  2  0  0  0  0
  6  7  1  0  0  0  0
  7  8  2  0  0  0  0
  8  9  1  0  0  0  0
  9 10  2  0  0  0  0
 10 11  1  0  0  0  0
 11 12  1  0  0  0  0
 12 13  1  0  0  0  0
 13 14  1  0  0  0  0
 14 15  1  0  0  0  0
 15 16  1  0  0  0  0
 16 17  2  0  0  0  0
 16 24  1  0  0  0  0
 17 18  1  0  0  0  0
 18 19  1  0  0  0  0
 18 20  2  0  0  0  0
 20 21  1  0  0  0  0
 20 22  1  0  0  0  0
 22 23  1  0  0  0  0
 22 24  2  0  0  0  0
  3 26  1  0  0  0  0
  6 27  1  0  0  0  0
  6 28  1  0  0  0  0
  7 29  1  0  0  0  0
  8 30  1  0  0  0  0
  9 31  1  0  0  0  0
 12 32  1  0  0  0  0
 12 33  1  0  0  0  0
 13 34  1  0  0  0  0
 13 35  1  0  0  0  0
 14 36  1  0  0  0  0
 14 37  1  0  0  0  0
 17 38  1  0  0  0  0
 19 39  1  0  0  0  0
 19 40  1  0  0  0  0
 19 41  1  0  0  0  0
 23 42  1  0  0  0  0
 23 43  1  0  0  0  0
 23 44  1  0  0  0  0
 24 45  1  0  0  0  0
M  END
> <r_user_dG.exp>
-8.95356461676206

$$$$
37
  -OEChem-05192314073D
 Structure written by MMmdl.
 45 47  0     0  0  0  0  0  0999 V2000
    3.8718  -50.2361    7.2245 O   0  0  0  0  0  0  0  0  0  0  0  0
    3.1316  -49.2780    6.8995 C   0  0  0  0  0  0  0  0  0  0  0  0
    3.5610  -48.1075    6.8535 O   0  0  0  0  0  0  0  0  0  0  0  0
    1.7186  -49.5691    6.5705 C   0  0  0  0  0  0  0  0  0  0  0  0
   -0.0592  -50.9948    6.4011 C   0  0  0  0  0  0  0  0  0  0  0  0
   -0.9536  -52.0849    6.4146 C   0  0  0  0  0  0  0  0  0  0  0  0
   -2.3089  -51.8726    6.0773 C   0  0  0  0  0  0  0  0  0  0  0  0
   -2.7528  -50.5878    5.7200 C   0  0  0  0  0  0  0  0  0  0  0  0
   -1.8514  -49.5039    5.7068 C   0  0  0  0  0  0  0  0  0  0  0  0
   -0.4753  -49.6825    6.0507 C   0  0  0  0  0  0  0  0  0  0  0  0
    0.6554  -48.7964    6.1719 C   0  0  0  0  0  0  0  0  0  0  0  0
    0.6195  -47.3137    5.9496 C   0  0  0  0  0  0  0  0  0  0  0  0
    0.2592  -46.5733    7.2461 C   0  0  0  0  0  0  0  0  0  0  0  0
   -0.2682  -45.1542    7.0159 C   0  0  0  0  0  0  0  0  0  0  0  0
   -1.4266  -45.1828    6.1895 O   0  0  0  0  0  0  0  0  0  0  0  0
   -2.6770  -45.3015    6.7518 C   0  0  0  0  0  0  0  0  0  0  0  0
   -2.9170  -45.6759    8.0958 C   0  0  0  0  0  0  0  0  0  0  0  0
   -4.2343  -45.8324    8.5752 C   0  0  0  0  0  0  0  0  0  0  0  0
   -4.4648  -46.3044    9.9964 C   0  0  0  0  0  0  0  0  0  0  0  0
   -5.3341  -45.5816    7.7206 C   0  0  0  0  0  0  0  0  0  0  0  0
   -6.9496  -45.7880    8.3010 Cl  0  0  0  0  0  0  0  0  0  0  0  0
   -5.0974  -45.1838    6.3837 C   0  0  0  0  0  0  0  0  0  0  0  0
   -6.2586  -44.9543    5.4353 C   0  0  0  0  0  0  0  0  0  0  0  0
   -3.7754  -45.0569    5.9068 C   0  0  0  0  0  0  0  0  0  0  0  0
    1.2925  -50.8807    6.6907 N   0  0  0  0  0  0  0  0  0  0  0  0
    4.4800  -48.0972    7.0940 H   0  0  0  0  0  0  0  0  0  0  0  0
   -0.6059  -53.0723    6.6802 H   0  0  0  0  0  0  0  0  0  0  0  0
   -3.0047  -52.6984    6.0940 H   0  0  0  0  0  0  0  0  0  0  0  0
   -3.7878  -50.4304    5.4547 H   0  0  0  0  0  0  0  0  0  0  0  0
   -1.8674  -49.0971    4.6849 H   0  0  0  0  0  0  0  0  0  0  0  0
   -2.2531  -48.7554    6.4057 H   0  0  0  0  0  0  0  0  0  0  0  0
    1.6087  -46.9771    5.6057 H   0  0  0  0  0  0  0  0  0  0  0  0
   -0.1337  -47.0828    5.1819 H   0  0  0  0  0  0  0  0  0  0  0  0
   -0.5150  -47.1508    7.7726 H   0  0  0  0  0  0  0  0  0  0  0  0
    1.1608  -46.5117    7.8733 H   0  0  0  0  0  0  0  0  0  0  0  0
   -0.5255  -44.7016    7.9849 H   0  0  0  0  0  0  0  0  0  0  0  0
    0.5117  -44.5528    6.5259 H   0  0  0  0  0  0  0  0  0  0  0  0
   -2.0828  -45.8434    8.7610 H   0  0  0  0  0  0  0  0  0  0  0  0
   -4.5326  -45.4342   10.6659 H   0  0  0  0  0  0  0  0  0  0  0  0
   -5.4022  -46.8779   10.0447 H   0  0  0  0  0  0  0  0  0  0  0  0
   -3.6270  -46.9442   10.3106 H   0  0  0  0  0  0  0  0  0  0  0  0
   -6.5622  -43.8978    5.4754 H   0  0  0  0  0  0  0  0  0  0  0  0
   -5.9505  -45.2084    4.4104 H   0  0  0  0  0  0  0  0  0  0  0  0
   -7.1055  -45.5905    5.7320 H   0  0  0  0  0  0  0  0  0  0  0  0
   -3.6044  -44.7684    4.8802 H   0  0  0  0  0  0  0  0  0  0  0  0
  1  2  2  0  0  0  0
  2  3  1  0  0  0  0
  2  4  1  0  0  0  0
  4 11  1  0  0  0  0
  4 25  2  0  0  0  0
  5  6  2  0  0  0  0
  5 10  1  0  0  0  0
  5 25  1  0  0  0  0
  6  7  1  0  0  0  0
  7  8  2  0  0  0  0
  8  9  1  0  0  0  0
  9 10  1  0  0  0  0
 10 11  2  0  0  0  0
 11 12  1  0  0  0  0
 12 13  1  0  0  0  0
 13 14  1  0  0  0  0
 14 15  1  0  0  0  0
 15 16  1  0  0  0  0
 16 17  2  0  0  0  0
 16 24  1  0  0  0  0
 17 18  1  0  0  0  0
 18 19  1  0  0  0  0
 18 20  2  0  0  0  0
 20 21  1  0  0  0  0
 20 22  1  0  0  0  0
 22 23  1  0  0  0  0
 22 24  2  0  0  0  0
  3 26  1  0  0  0  0
  6 27  1  0  0  0  0
  7 28  1  0  0  0  0
  8 29  1  0  0  0  0
  9 30  1  0  0  0  0
  9 31  1  0  0  0  0
 12 32  1  0  0  0  0
 12 33  1  0  0  0  0
 13 34  1  0  0  0  0
 13 35  1  0  0  0  0
 14 36  1  0  0  0  0
 14 37  1  0  0  0  0
 17 38  1  0  0  0  0
 19 39  1  0  0  0  0
 19 40  1  0  0  0  0
 19 41  1  0  0  0  0
 23 42  1  0  0  0  0
 23 43  1  0  0  0  0
 23 44  1  0  0  0  0
 24 45  1  0  0  0  0
M  END
> <r_user_dG.exp>
-8.95356461676206

$$$$
37
  -OEChem-05192314073D
 Structure written by MMmdl.
 45 47  0     0  0  0  0  0  0999 V2000
    3.8718  -50.2361    7.2245 O   0  0  0  0  0  0  0  0  0  0  0  0
    3.1316  -49.2780    6.8995 C   0  0  0  0  0  0  0  0  0  0  0  0
    3.5610  -48.1075    6.8535 O   0  0  0  0  0  0  0  0  0  0  0  0
    1.7186  -49.5691    6.5705 C   0  0  0  0  0  0  0  0  0  0  0  0
   -0.0592  -50.9948    6.4011 C   0  0  0  0  0  0  0  0  0  0  0  0
   -0.9536  -52.0849    6.4146 C   0  0  0  0  0  0  0  0  0  0  0  0
   -2.3089  -51.8726    6.0773 C   0  0  0  0  0  0  0  0  0  0  0  0
   -2.7528  -50.5878    5.7200 C   0  0  0  0  0  0  0  0  0  0  0  0
   -1.8514  -49.5039    5.7068 C   0  0  0  0  0  0  0  0  0  0  0  0
   -0.4753  -49.6825    6.0507 C   0  0  0  0  0  0  0  0  0  0  0  0
    0.6554  -48.7964    6.1719 C   0  0  0  0  0  0  0  0  0  0  0  0
    0.6195  -47.3137    5.9496 C   0  0  0  0  0  0  0  0  0  0  0  0
    0.2592  -46.5733    7.2461 C   0  0  0  0  0  0  0  0  0  0  0  0
   -0.2682  -45.1542    7.0159 C   0  0  0  0  0  0  0  0  0  0  0  0
   -1.4266  -45.1828    6.1895 O   0  0  0  0  0  0  0  0  0  0  0  0
   -2.6770  -45.3015    6.7518 C   0  0  0  0  0  0  0  0  0  0  0  0
   -2.9170  -45.6759    8.0958 C   0  0  0  0  0  0  0  0  0  0  0  0
   -4.2343  -45.8324    8.5752 C   0  0  0  0  0  0  0  0  0  0  0  0
   -4.4648  -46.3044    9.9964 C   0  0  0  0  0  0  0  0  0  0  0  0
   -5.3341  -45.5816    7.7206 C   0  0  0  0  0  0  0  0  0  0  0  0
   -6.9496  -45.7880    8.3010 Cl  0  0  0  0  0  0  0  0  0  0  0  0
   -5.0974  -45.1838    6.3837 C   0  0  0  0  0  0  0  0  0  0  0  0
   -6.2586  -44.9543    5.4353 C   0  0  0  0  0  0  0  0  0  0  0  0
   -3.7754  -45.0569    5.9068 C   0  0  0  0  0  0  0  0  0  0  0  0
    1.2925  -50.8807    6.6907 N   0  0  0  0  0  0  0  0  0  0  0  0
    3.3726  -51.0441    7.2029 H   0  0  0  0  0  0  0  0  0  0  0  0
    2.8603  -47.5228    6.5896 H   0  0  0  0  0  0  0  0  0  0  0  0
   -0.6059  -53.0723    6.6802 H   0  0  0  0  0  0  0  0  0  0  0  0
   -3.0047  -52.6984    6.0940 H   0  0  0  0  0  0  0  0  0  0  0  0
   -3.7878  -50.4304    5.4547 H   0  0  0  0  0  0  0  0  0  0  0  0
   -2.2066  -48.5217    5.4321 H   0  0  0  0  0  0  0  0  0  0  0  0
    1.6087  -46.9771    5.6057 H   0  0  0  0  0  0  0  0  0  0  0  0
   -0.1337  -47.0828    5.1819 H   0  0  0  0  0  0  0  0  0  0  0  0
   -0.5150  -47.1508    7.7726 H   0  0  0  0  0  0  0  0  0  0  0  0
    1.1608  -46.5117    7.8733 H   0  0  0  0  0  0  0  0  0  0  0  0
   -0.5255  -44.7016    7.9849 H   0  0  0  0  0  0  0  0  0  0  0  0
    0.5117  -44.5528    6.5259 H   0  0  0  0  0  0  0  0  0  0  0  0
   -2.0828  -45.8434    8.7610 H   0  0  0  0  0  0  0  0  0  0  0  0
   -4.5326  -45.4342   10.6659 H   0  0  0  0  0  0  0  0  0  0  0  0
   -5.4022  -46.8779   10.0447 H   0  0  0  0  0  0  0  0  0  0  0  0
   -3.6270  -46.9442   10.3106 H   0  0  0  0  0  0  0  0  0  0  0  0
   -6.5622  -43.8978    5.4754 H   0  0  0  0  0  0  0  0  0  0  0  0
   -5.9505  -45.2084    4.4104 H   0  0  0  0  0  0  0  0  0  0  0  0
   -7.1055  -45.5905    5.7320 H   0  0  0  0  0  0  0  0  0  0  0  0
   -3.6044  -44.7684    4.8802 H   0  0  0  0  0  0  0  0  0  0  0  0
  1  2  1  0  0  0  0
  2  3  1  0  0  0  0
  2  4  2  0  0  0  0
  4 11  1  0  0  0  0
  4 25  1  0  0  0  0
  5  6  1  0  0  0  0
  5 10  1  0  0  0  0
  5 25  2  0  0  0  0
  6  7  2  0  0  0  0
  7  8  1  0  0  0  0
  8  9  2  0  0  0  0
  9 10  1  0  0  0  0
 10 11  2  0  0  0  0
 11 12  1  0  0  0  0
 12 13  1  0  0  0  0
 13 14  1  0  0  0  0
 14 15  1  0  0  0  0
 15 16  1  0  0  0  0
 16 17  2  0  0  0  0
 16 24  1  0  0  0  0
 17 18  1  0  0  0  0
 18 19  1  0  0  0  0
 18 20  2  0  0  0  0
 20 21  1  0  0  0  0
 20 22  1  0  0  0  0
 22 23  1  0  0  0  0
 22 24  2  0  0  0  0
  1 26  1  0  0  0  0
  3 27  1  0  0  0  0
  6 28  1  0  0  0  0
  7 29  1  0  0  0  0
  8 30  1  0  0  0  0
  9 31  1  0  0  0  0
 12 32  1  0  0  0  0
 12 33  1  0  0  0  0
 13 34  1  0  0  0  0
 13 35  1  0  0  0  0
 14 36  1  0  0  0  0
 14 37  1  0  0  0  0
 17 38  1  0  0  0  0
 19 39  1  0  0  0  0
 19 40  1  0  0  0  0
 19 41  1  0  0  0  0
 23 42  1  0  0  0  0
 23 43  1  0  0  0  0
 23 44  1  0  0  0  0
 24 45  1  0  0  0  0
M  END
> <r_user_dG.exp>
-8.95356461676206

$$$$
