58
  -OEChem-05162309453D
 Structure written by MMmdl.
 48 50  0     0  0  0  0  0  0999 V2000
    3.8903  -49.8262    7.1167 O   0  0  0  0  0  0  0  0  0  0  0  0
    3.1444  -48.9593    6.6057 C   0  0  0  0  0  0  0  0  0  0  0  0
    3.6298  -47.8564    6.2829 O   0  0  0  0  0  0  0  0  0  0  0  0
    1.6967  -49.2066    6.4083 C   0  0  0  0  0  0  0  0  0  0  0  0
   -0.2621  -50.3558    6.4457 C   0  0  0  0  0  0  0  0  0  0  0  0
   -1.3367  -51.2906    6.5989 C   0  0  0  0  0  0  0  0  0  0  0  0
   -2.6513  -50.8979    6.3447 C   0  0  0  0  0  0  0  0  0  0  0  0
   -2.9186  -49.5838    5.8919 C   0  0  0  0  0  0  0  0  0  0  0  0
   -1.8522  -48.6553    5.7234 C   0  0  0  0  0  0  0  0  0  0  0  0
   -0.5269  -49.0254    6.0090 C   0  0  0  0  0  0  0  0  0  0  0  0
    0.7199  -48.3234    5.9886 C   0  0  0  0  0  0  0  0  0  0  0  0
    0.8738  -46.8713    5.6025 C   0  0  0  0  0  0  0  0  0  0  0  0
    0.9587  -45.9342    6.8261 C   0  0  0  0  0  0  0  0  0  0  0  0
   -0.3001  -45.9593    7.7126 C   0  0  0  0  0  0  0  0  0  0  0  0
   -1.3807  -45.3771    6.9944 O   0  0  0  0  0  0  0  0  0  0  0  0
   -2.6485  -45.4526    7.5319 C   0  0  0  0  0  0  0  0  0  0  0  0
   -2.9716  -46.1370    8.7274 C   0  0  0  0  0  0  0  0  0  0  0  0
   -4.3042  -46.2018    9.1838 C   0  0  0  0  0  0  0  0  0  0  0  0
   -4.6224  -46.9920   10.4412 C   0  0  0  0  0  0  0  0  0  0  0  0
   -5.3304  -45.5556    8.4565 C   0  0  0  0  0  0  0  0  0  0  0  0
   -6.9729  -45.6522    8.9915 Cl  0  0  0  0  0  0  0  0  0  0  0  0
   -5.0112  -44.8439    7.2771 C   0  0  0  0  0  0  0  0  0  0  0  0
   -6.0922  -44.1321    6.4827 C   0  0  0  0  0  0  0  0  0  0  0  0
   -3.6781  -44.8065    6.8249 C   0  0  0  0  0  0  0  0  0  0  0  0
   -4.0048  -51.9682    6.5931 Cl  0  0  0  0  0  0  0  0  0  0  0  0
    1.7839  -51.7162    7.0809 C   0  0  0  0  0  0  0  0  0  0  0  0
    1.1078  -50.4699    6.6570 N   0  0  0  0  0  0  0  0  0  0  0  0
    4.5569  -47.8451    6.4900 H   0  0  0  0  0  0  0  0  0  0  0  0
   -1.1286  -52.3030    6.9123 H   0  0  0  0  0  0  0  0  0  0  0  0
   -3.9332  -49.2848    5.6738 H   0  0  0  0  0  0  0  0  0  0  0  0
   -2.0641  -47.6562    5.3724 H   0  0  0  0  0  0  0  0  0  0  0  0
    1.7940  -46.7605    5.0101 H   0  0  0  0  0  0  0  0  0  0  0  0
    0.0073  -46.5758    4.9926 H   0  0  0  0  0  0  0  0  0  0  0  0
    1.8206  -46.2389    7.4379 H   0  0  0  0  0  0  0  0  0  0  0  0
    1.1097  -44.9058    6.4662 H   0  0  0  0  0  0  0  0  0  0  0  0
   -0.5475  -46.9989    7.9733 H   0  0  0  0  0  0  0  0  0  0  0  0
   -0.1157  -45.3846    8.6322 H   0  0  0  0  0  0  0  0  0  0  0  0
   -2.1885  -46.6153    9.2969 H   0  0  0  0  0  0  0  0  0  0  0  0
   -4.5547  -46.3306   11.3175 H   0  0  0  0  0  0  0  0  0  0  0  0
   -5.6408  -47.4015   10.3689 H   0  0  0  0  0  0  0  0  0  0  0  0
   -3.9023  -47.8167   10.5479 H   0  0  0  0  0  0  0  0  0  0  0  0
   -6.1950  -43.0990    6.8463 H   0  0  0  0  0  0  0  0  0  0  0  0
   -5.8167  -44.1202    5.4178 H   0  0  0  0  0  0  0  0  0  0  0  0
   -7.0481  -44.6617    6.6082 H   0  0  0  0  0  0  0  0  0  0  0  0
   -3.4418  -44.2711    5.9172 H   0  0  0  0  0  0  0  0  0  0  0  0
    1.0401  -52.5197    7.1866 H   0  0  0  0  0  0  0  0  0  0  0  0
    2.5295  -52.0040    6.3251 H   0  0  0  0  0  0  0  0  0  0  0  0
    2.2851  -51.5513    8.0461 H   0  0  0  0  0  0  0  0  0  0  0  0
  1  2  2  0  0  0  0
  2  3  1  0  0  0  0
  2  4  1  0  0  0  0
  4 11  2  0  0  0  0
  4 27  1  0  0  0  0
  5  6  2  0  0  0  0
  5 10  1  0  0  0  0
  5 27  1  0  0  0  0
  6  7  1  0  0  0  0
  7  8  2  0  0  0  0
  7 25  1  0  0  0  0
  8  9  1  0  0  0  0
  9 10  2  0  0  0  0
 10 11  1  0  0  0  0
 11 12  1  0  0  0  0
 12 13  1  0  0  0  0
 13 14  1  0  0  0  0
 14 15  1  0  0  0  0
 15 16  1  0  0  0  0
 16 17  2  0  0  0  0
 16 24  1  0  0  0  0
 17 18  1  0  0  0  0
 18 19  1  0  0  0  0
 18 20  2  0  0  0  0
 20 21  1  0  0  0  0
 20 22  1  0  0  0  0
 22 23  1  0  0  0  0
 22 24  2  0  0  0  0
 26 27  1  0  0  0  0
  3 28  1  0  0  0  0
  6 29  1  0  0  0  0
  8 30  1  0  0  0  0
  9 31  1  0  0  0  0
 12 32  1  0  0  0  0
 12 33  1  0  0  0  0
 13 34  1  0  0  0  0
 13 35  1  0  0  0  0
 14 36  1  0  0  0  0
 14 37  1  0  0  0  0
 17 38  1  0  0  0  0
 19 39  1  0  0  0  0
 19 40  1  0  0  0  0
 19 41  1  0  0  0  0
 23 42  1  0  0  0  0
 23 43  1  0  0  0  0
 23 44  1  0  0  0  0
 24 45  1  0  0  0  0
 26 46  1  0  0  0  0
 26 47  1  0  0  0  0
 26 48  1  0  0  0  0
M  END
> <r_user_dG.exp>
-9.40789916598878

$$$$
