53
  -OEChem-05192314073D
 Structure written by MMmdl.
 45 47  0     0  0  0  0  0  0999 V2000
    3.5633  -47.7725    6.2912 O   0  0  0  0  0  0  0  0  0  0  0  0
    2.9990  -48.7572    6.8105 C   0  0  0  0  0  0  0  0  0  0  0  0
    3.5991  -49.5249    7.5965 O   0  0  0  0  0  0  0  0  0  0  0  0
    1.5779  -49.0223    6.4966 C   0  0  0  0  0  0  0  0  0  0  0  0
   -0.3475  -50.2345    6.7439 C   0  0  0  0  0  0  0  0  0  0  0  0
   -1.3726  -51.1291    7.1185 C   0  0  0  0  0  0  0  0  0  0  0  0
   -2.6775  -50.9471    6.6123 C   0  0  0  0  0  0  0  0  0  0  0  0
   -2.9184  -49.8992    5.6921 C   0  0  0  0  0  0  0  0  0  0  0  0
   -1.8916  -49.0147    5.3222 C   0  0  0  0  0  0  0  0  0  0  0  0
   -0.5857  -49.1422    5.8567 C   0  0  0  0  0  0  0  0  0  0  0  0
    0.6255  -48.3732    5.7579 C   0  0  0  0  0  0  0  0  0  0  0  0
    0.7780  -47.0671    5.0307 C   0  0  0  0  0  0  0  0  0  0  0  0
    0.7971  -45.8570    5.9948 C   0  0  0  0  0  0  0  0  0  0  0  0
   -0.4751  -45.7293    6.8378 C   0  0  0  0  0  0  0  0  0  0  0  0
   -1.5902  -45.4593    5.9971 O   0  0  0  0  0  0  0  0  0  0  0  0
   -2.8366  -45.4835    6.5820 C   0  0  0  0  0  0  0  0  0  0  0  0
   -3.0790  -45.8230    7.9355 C   0  0  0  0  0  0  0  0  0  0  0  0
   -4.3932  -45.8530    8.4569 C   0  0  0  0  0  0  0  0  0  0  0  0
   -4.6030  -46.2695    9.9009 C   0  0  0  0  0  0  0  0  0  0  0  0
   -5.4830  -45.5150    7.6284 C   0  0  0  0  0  0  0  0  0  0  0  0
   -7.0947  -45.5514    8.2641 Cl  0  0  0  0  0  0  0  0  0  0  0  0
   -5.2572  -45.1565    6.2816 C   0  0  0  0  0  0  0  0  0  0  0  0
   -6.4197  -44.7794    5.3753 C   0  0  0  0  0  0  0  0  0  0  0  0
   -3.9414  -45.1545    5.7667 C   0  0  0  0  0  0  0  0  0  0  0  0
   -3.9554  -51.9815    7.1109 Cl  0  0  0  0  0  0  0  0  0  0  0  0
    0.9882  -50.1295    7.0836 N   0  0  0  0  0  0  0  0  0  0  0  0
    4.4951  -49.2289    7.7066 H   0  0  0  0  0  0  0  0  0  0  0  0
   -1.1598  -51.9486    7.7889 H   0  0  0  0  0  0  0  0  0  0  0  0
   -3.9045  -49.7779    5.2687 H   0  0  0  0  0  0  0  0  0  0  0  0
   -2.1014  -48.2234    4.6178 H   0  0  0  0  0  0  0  0  0  0  0  0
    1.7220  -47.0846    4.4662 H   0  0  0  0  0  0  0  0  0  0  0  0
   -0.0643  -46.9502    4.3330 H   0  0  0  0  0  0  0  0  0  0  0  0
    1.6556  -45.9660    6.6739 H   0  0  0  0  0  0  0  0  0  0  0  0
    0.9144  -44.9393    5.3998 H   0  0  0  0  0  0  0  0  0  0  0  0
   -0.6479  -46.6699    7.3814 H   0  0  0  0  0  0  0  0  0  0  0  0
   -0.3540  -44.9066    7.5578 H   0  0  0  0  0  0  0  0  0  0  0  0
   -2.2464  -46.0630    8.5801 H   0  0  0  0  0  0  0  0  0  0  0  0
   -4.5649  -45.3812   10.5485 H   0  0  0  0  0  0  0  0  0  0  0  0
   -5.5843  -46.7559   10.0032 H   0  0  0  0  0  0  0  0  0  0  0  0
   -3.8119  -46.9738   10.1979 H   0  0  0  0  0  0  0  0  0  0  0  0
   -6.5955  -43.6952    5.4355 H   0  0  0  0  0  0  0  0  0  0  0  0
   -6.1798  -45.0547    4.3377 H   0  0  0  0  0  0  0  0  0  0  0  0
   -7.3244  -45.3159    5.6972 H   0  0  0  0  0  0  0  0  0  0  0  0
   -3.7778  -44.8966    4.7308 H   0  0  0  0  0  0  0  0  0  0  0  0
    1.4690  -50.7730    7.6792 H   0  0  0  0  0  0  0  0  0  0  0  0
  1  2  2  0  0  0  0
  2  3  1  0  0  0  0
  2  4  1  0  0  0  0
  4 11  2  0  0  0  0
  4 26  1  0  0  0  0
  5  6  2  0  0  0  0
  5 10  1  0  0  0  0
  5 26  1  0  0  0  0
  6  7  1  0  0  0  0
  7  8  2  0  0  0  0
  7 25  1  0  0  0  0
  8  9  1  0  0  0  0
  9 10  2  0  0  0  0
 10 11  1  0  0  0  0
 11 12  1  0  0  0  0
 12 13  1  0  0  0  0
 13 14  1  0  0  0  0
 14 15  1  0  0  0  0
 15 16  1  0  0  0  0
 16 17  2  0  0  0  0
 16 24  1  0  0  0  0
 17 18  1  0  0  0  0
 18 19  1  0  0  0  0
 18 20  2  0  0  0  0
 20 21  1  0  0  0  0
 20 22  1  0  0  0  0
 22 23  1  0  0  0  0
 22 24  2  0  0  0  0
  3 27  1  0  0  0  0
  6 28  1  0  0  0  0
  8 29  1  0  0  0  0
  9 30  1  0  0  0  0
 12 31  1  0  0  0  0
 12 32  1  0  0  0  0
 13 33  1  0  0  0  0
 13 34  1  0  0  0  0
 14 35  1  0  0  0  0
 14 36  1  0  0  0  0
 17 37  1  0  0  0  0
 19 38  1  0  0  0  0
 19 39  1  0  0  0  0
 19 40  1  0  0  0  0
 23 41  1  0  0  0  0
 23 42  1  0  0  0  0
 23 43  1  0  0  0  0
 24 44  1  0  0  0  0
 26 45  1  0  0  0  0
M  END
> <r_user_dG.exp>
-9.96486893166623

$$$$
53
  -OEChem-05192314073D
 Structure written by MMmdl.
 45 47  0     1  0  0  0  0  0999 V2000
    3.5633  -47.7725    6.2912 O   0  0  0  0  0  0  0  0  0  0  0  0
    2.9990  -48.7572    6.8105 C   0  0  0  0  0  0  0  0  0  0  0  0
    3.5991  -49.5249    7.5965 O   0  0  0  0  0  0  0  0  0  0  0  0
    1.5779  -49.0223    6.4966 C   0  0  0  0  0  0  0  0  0  0  0  0
   -0.3475  -50.2345    6.7439 C   0  0  0  0  0  0  0  0  0  0  0  0
   -1.3726  -51.1291    7.1185 C   0  0  0  0  0  0  0  0  0  0  0  0
   -2.6775  -50.9471    6.6123 C   0  0  0  0  0  0  0  0  0  0  0  0
   -2.9184  -49.8992    5.6921 C   0  0  0  0  0  0  0  0  0  0  0  0
   -1.8916  -49.0147    5.3222 C   0  0  0  0  0  0  0  0  0  0  0  0
   -0.5857  -49.1422    5.8567 C   0  0  0  0  0  0  0  0  0  0  0  0
    0.6255  -48.3732    5.7579 C   0  0  3  0  0  0  0  0  0  0  0  0
    0.7780  -47.0671    5.0307 C   0  0  0  0  0  0  0  0  0  0  0  0
    0.7971  -45.8570    5.9948 C   0  0  0  0  0  0  0  0  0  0  0  0
   -0.4751  -45.7293    6.8378 C   0  0  0  0  0  0  0  0  0  0  0  0
   -1.5902  -45.4593    5.9971 O   0  0  0  0  0  0  0  0  0  0  0  0
   -2.8366  -45.4835    6.5820 C   0  0  0  0  0  0  0  0  0  0  0  0
   -3.0790  -45.8230    7.9355 C   0  0  0  0  0  0  0  0  0  0  0  0
   -4.3932  -45.8530    8.4569 C   0  0  0  0  0  0  0  0  0  0  0  0
   -4.6030  -46.2695    9.9009 C   0  0  0  0  0  0  0  0  0  0  0  0
   -5.4830  -45.5150    7.6284 C   0  0  0  0  0  0  0  0  0  0  0  0
   -7.0947  -45.5514    8.2641 Cl  0  0  0  0  0  0  0  0  0  0  0  0
   -5.2572  -45.1565    6.2816 C   0  0  0  0  0  0  0  0  0  0  0  0
   -6.4197  -44.7794    5.3753 C   0  0  0  0  0  0  0  0  0  0  0  0
   -3.9414  -45.1545    5.7667 C   0  0  0  0  0  0  0  0  0  0  0  0
   -3.9554  -51.9815    7.1109 Cl  0  0  0  0  0  0  0  0  0  0  0  0
    0.9882  -50.1295    7.0836 N   0  0  0  0  0  0  0  0  0  0  0  0
    4.4951  -49.2289    7.7066 H   0  0  0  0  0  0  0  0  0  0  0  0
   -1.1598  -51.9486    7.7889 H   0  0  0  0  0  0  0  0  0  0  0  0
   -3.9045  -49.7779    5.2687 H   0  0  0  0  0  0  0  0  0  0  0  0
   -2.1014  -48.2234    4.6178 H   0  0  0  0  0  0  0  0  0  0  0  0
    0.9230  -48.9278    4.8558 H   0  0  0  0  0  0  0  0  0  0  0  0
    1.7220  -47.0846    4.4662 H   0  0  0  0  0  0  0  0  0  0  0  0
   -0.0643  -46.9502    4.3330 H   0  0  0  0  0  0  0  0  0  0  0  0
    1.6556  -45.9660    6.6739 H   0  0  0  0  0  0  0  0  0  0  0  0
    0.9144  -44.9393    5.3998 H   0  0  0  0  0  0  0  0  0  0  0  0
   -0.6479  -46.6699    7.3814 H   0  0  0  0  0  0  0  0  0  0  0  0
   -0.3540  -44.9066    7.5578 H   0  0  0  0  0  0  0  0  0  0  0  0
   -2.2464  -46.0630    8.5801 H   0  0  0  0  0  0  0  0  0  0  0  0
   -4.5649  -45.3812   10.5485 H   0  0  0  0  0  0  0  0  0  0  0  0
   -5.5843  -46.7559   10.0032 H   0  0  0  0  0  0  0  0  0  0  0  0
   -3.8119  -46.9738   10.1979 H   0  0  0  0  0  0  0  0  0  0  0  0
   -6.5955  -43.6952    5.4355 H   0  0  0  0  0  0  0  0  0  0  0  0
   -6.1798  -45.0547    4.3377 H   0  0  0  0  0  0  0  0  0  0  0  0
   -7.3244  -45.3159    5.6972 H   0  0  0  0  0  0  0  0  0  0  0  0
   -3.7778  -44.8966    4.7308 H   0  0  0  0  0  0  0  0  0  0  0  0
  1  2  2  0  0  0  0
  2  3  1  0  0  0  0
  2  4  1  0  0  0  0
  4 11  1  0  0  0  0
  4 26  2  0  0  0  0
  5  6  2  0  0  0  0
  5 10  1  0  0  0  0
  5 26  1  0  0  0  0
  6  7  1  0  0  0  0
  7  8  2  0  0  0  0
  7 25  1  0  0  0  0
  8  9  1  0  0  0  0
  9 10  2  0  0  0  0
 10 11  1  0  0  0  0
 11 12  1  0  0  0  0
 12 13  1  0  0  0  0
 13 14  1  0  0  0  0
 14 15  1  0  0  0  0
 15 16  1  0  0  0  0
 16 17  2  0  0  0  0
 16 24  1  0  0  0  0
 17 18  1  0  0  0  0
 18 19  1  0  0  0  0
 18 20  2  0  0  0  0
 20 21  1  0  0  0  0
 20 22  1  0  0  0  0
 22 23  1  0  0  0  0
 22 24  2  0  0  0  0
  3 27  1  0  0  0  0
  6 28  1  0  0  0  0
  8 29  1  0  0  0  0
  9 30  1  0  0  0  0
 11 31  1  0  0  0  0
 12 32  1  0  0  0  0
 12 33  1  0  0  0  0
 13 34  1  0  0  0  0
 13 35  1  0  0  0  0
 14 36  1  0  0  0  0
 14 37  1  0  0  0  0
 17 38  1  0  0  0  0
 19 39  1  0  0  0  0
 19 40  1  0  0  0  0
 19 41  1  0  0  0  0
 23 42  1  0  0  0  0
 23 43  1  0  0  0  0
 23 44  1  0  0  0  0
 24 45  1  0  0  0  0
M  END
> <r_user_dG.exp>
-9.96486893166623

$$$$
53
  -OEChem-05192314073D
 Structure written by MMmdl.
 45 47  0     1  0  0  0  0  0999 V2000
    3.5633  -47.7725    6.2912 O   0  0  0  0  0  0  0  0  0  0  0  0
    2.9990  -48.7572    6.8105 C   0  0  0  0  0  0  0  0  0  0  0  0
    3.5991  -49.5249    7.5965 O   0  0  0  0  0  0  0  0  0  0  0  0
    1.5779  -49.0223    6.4966 C   0  0  3  0  0  0  0  0  0  0  0  0
   -0.3475  -50.2345    6.7439 C   0  0  0  0  0  0  0  0  0  0  0  0
   -1.3726  -51.1291    7.1185 C   0  0  0  0  0  0  0  0  0  0  0  0
   -2.6775  -50.9471    6.6123 C   0  0  0  0  0  0  0  0  0  0  0  0
   -2.9184  -49.8992    5.6921 C   0  0  0  0  0  0  0  0  0  0  0  0
   -1.8916  -49.0147    5.3222 C   0  0  0  0  0  0  0  0  0  0  0  0
   -0.5857  -49.1422    5.8567 C   0  0  0  0  0  0  0  0  0  0  0  0
    0.6255  -48.3732    5.7579 C   0  0  0  0  0  0  0  0  0  0  0  0
    0.7780  -47.0671    5.0307 C   0  0  0  0  0  0  0  0  0  0  0  0
    0.7971  -45.8570    5.9948 C   0  0  0  0  0  0  0  0  0  0  0  0
   -0.4751  -45.7293    6.8378 C   0  0  0  0  0  0  0  0  0  0  0  0
   -1.5902  -45.4593    5.9971 O   0  0  0  0  0  0  0  0  0  0  0  0
   -2.8366  -45.4835    6.5820 C   0  0  0  0  0  0  0  0  0  0  0  0
   -3.0790  -45.8230    7.9355 C   0  0  0  0  0  0  0  0  0  0  0  0
   -4.3932  -45.8530    8.4569 C   0  0  0  0  0  0  0  0  0  0  0  0
   -4.6030  -46.2695    9.9009 C   0  0  0  0  0  0  0  0  0  0  0  0
   -5.4830  -45.5150    7.6284 C   0  0  0  0  0  0  0  0  0  0  0  0
   -7.0947  -45.5514    8.2641 Cl  0  0  0  0  0  0  0  0  0  0  0  0
   -5.2572  -45.1565    6.2816 C   0  0  0  0  0  0  0  0  0  0  0  0
   -6.4197  -44.7794    5.3753 C   0  0  0  0  0  0  0  0  0  0  0  0
   -3.9414  -45.1545    5.7667 C   0  0  0  0  0  0  0  0  0  0  0  0
   -3.9554  -51.9815    7.1109 Cl  0  0  0  0  0  0  0  0  0  0  0  0
    0.9882  -50.1295    7.0836 N   0  0  0  0  0  0  0  0  0  0  0  0
    4.4951  -49.2289    7.7066 H   0  0  0  0  0  0  0  0  0  0  0  0
    1.8687  -49.6225    5.6219 H   0  0  0  0  0  0  0  0  0  0  0  0
   -1.1598  -51.9486    7.7889 H   0  0  0  0  0  0  0  0  0  0  0  0
   -3.9045  -49.7779    5.2687 H   0  0  0  0  0  0  0  0  0  0  0  0
   -2.1014  -48.2234    4.6178 H   0  0  0  0  0  0  0  0  0  0  0  0
    1.7220  -47.0846    4.4662 H   0  0  0  0  0  0  0  0  0  0  0  0
   -0.0643  -46.9502    4.3330 H   0  0  0  0  0  0  0  0  0  0  0  0
    1.6556  -45.9660    6.6739 H   0  0  0  0  0  0  0  0  0  0  0  0
    0.9144  -44.9393    5.3998 H   0  0  0  0  0  0  0  0  0  0  0  0
   -0.6479  -46.6699    7.3814 H   0  0  0  0  0  0  0  0  0  0  0  0
   -0.3540  -44.9066    7.5578 H   0  0  0  0  0  0  0  0  0  0  0  0
   -2.2464  -46.0630    8.5801 H   0  0  0  0  0  0  0  0  0  0  0  0
   -4.5649  -45.3812   10.5485 H   0  0  0  0  0  0  0  0  0  0  0  0
   -5.5843  -46.7559   10.0032 H   0  0  0  0  0  0  0  0  0  0  0  0
   -3.8119  -46.9738   10.1979 H   0  0  0  0  0  0  0  0  0  0  0  0
   -6.5955  -43.6952    5.4355 H   0  0  0  0  0  0  0  0  0  0  0  0
   -6.1798  -45.0547    4.3377 H   0  0  0  0  0  0  0  0  0  0  0  0
   -7.3244  -45.3159    5.6972 H   0  0  0  0  0  0  0  0  0  0  0  0
   -3.7778  -44.8966    4.7308 H   0  0  0  0  0  0  0  0  0  0  0  0
  1  2  2  0  0  0  0
  2  3  1  0  0  0  0
  2  4  1  0  0  0  0
  4 11  1  0  0  0  0
  4 26  1  0  0  0  0
  5  6  1  0  0  0  0
  5 10  1  0  0  0  0
  5 26  2  0  0  0  0
  6  7  2  0  0  0  0
  7  8  1  0  0  0  0
  7 25  1  0  0  0  0
  8  9  2  0  0  0  0
  9 10  1  0  0  0  0
 10 11  2  0  0  0  0
 11 12  1  0  0  0  0
 12 13  1  0  0  0  0
 13 14  1  0  0  0  0
 14 15  1  0  0  0  0
 15 16  1  0  0  0  0
 16 17  2  0  0  0  0
 16 24  1  0  0  0  0
 17 18  1  0  0  0  0
 18 19  1  0  0  0  0
 18 20  2  0  0  0  0
 20 21  1  0  0  0  0
 20 22  1  0  0  0  0
 22 23  1  0  0  0  0
 22 24  2  0  0  0  0
  3 27  1  0  0  0  0
  4 28  1  0  0  0  0
  6 29  1  0  0  0  0
  8 30  1  0  0  0  0
  9 31  1  0  0  0  0
 12 32  1  0  0  0  0
 12 33  1  0  0  0  0
 13 34  1  0  0  0  0
 13 35  1  0  0  0  0
 14 36  1  0  0  0  0
 14 37  1  0  0  0  0
 17 38  1  0  0  0  0
 19 39  1  0  0  0  0
 19 40  1  0  0  0  0
 19 41  1  0  0  0  0
 23 42  1  0  0  0  0
 23 43  1  0  0  0  0
 23 44  1  0  0  0  0
 24 45  1  0  0  0  0
M  END
> <r_user_dG.exp>
-9.96486893166623

$$$$
53
  -OEChem-05192314073D
 Structure written by MMmdl.
 45 47  0     1  0  0  0  0  0999 V2000
    3.5633  -47.7725    6.2912 O   0  0  0  0  0  0  0  0  0  0  0  0
    2.9990  -48.7572    6.8105 C   0  0  0  0  0  0  0  0  0  0  0  0
    3.5991  -49.5249    7.5965 O   0  0  0  0  0  0  0  0  0  0  0  0
    1.5779  -49.0223    6.4966 C   0  0  0  0  0  0  0  0  0  0  0  0
   -0.3475  -50.2345    6.7439 C   0  0  0  0  0  0  0  0  0  0  0  0
   -1.3726  -51.1291    7.1185 C   0  0  0  0  0  0  0  0  0  0  0  0
   -2.6775  -50.9471    6.6123 C   0  0  3  0  0  0  0  0  0  0  0  0
   -2.9184  -49.8992    5.6921 C   0  0  0  0  0  0  0  0  0  0  0  0
   -1.8916  -49.0147    5.3222 C   0  0  0  0  0  0  0  0  0  0  0  0
   -0.5857  -49.1422    5.8567 C   0  0  0  0  0  0  0  0  0  0  0  0
    0.6255  -48.3732    5.7579 C   0  0  0  0  0  0  0  0  0  0  0  0
    0.7780  -47.0671    5.0307 C   0  0  0  0  0  0  0  0  0  0  0  0
    0.7971  -45.8570    5.9948 C   0  0  0  0  0  0  0  0  0  0  0  0
   -0.4751  -45.7293    6.8378 C   0  0  0  0  0  0  0  0  0  0  0  0
   -1.5902  -45.4593    5.9971 O   0  0  0  0  0  0  0  0  0  0  0  0
   -2.8366  -45.4835    6.5820 C   0  0  0  0  0  0  0  0  0  0  0  0
   -3.0790  -45.8230    7.9355 C   0  0  0  0  0  0  0  0  0  0  0  0
   -4.3932  -45.8530    8.4569 C   0  0  0  0  0  0  0  0  0  0  0  0
   -4.6030  -46.2695    9.9009 C   0  0  0  0  0  0  0  0  0  0  0  0
   -5.4830  -45.5150    7.6284 C   0  0  0  0  0  0  0  0  0  0  0  0
   -7.0947  -45.5514    8.2641 Cl  0  0  0  0  0  0  0  0  0  0  0  0
   -5.2572  -45.1565    6.2816 C   0  0  0  0  0  0  0  0  0  0  0  0
   -6.4197  -44.7794    5.3753 C   0  0  0  0  0  0  0  0  0  0  0  0
   -3.9414  -45.1545    5.7667 C   0  0  0  0  0  0  0  0  0  0  0  0
   -3.9554  -51.9815    7.1109 Cl  0  0  0  0  0  0  0  0  0  0  0  0
    0.9882  -50.1295    7.0836 N   0  0  0  0  0  0  0  0  0  0  0  0
    4.4951  -49.2289    7.7066 H   0  0  0  0  0  0  0  0  0  0  0  0
   -1.1598  -51.9486    7.7889 H   0  0  0  0  0  0  0  0  0  0  0  0
   -2.4503  -51.6281    5.7789 H   0  0  0  0  0  0  0  0  0  0  0  0
   -3.9045  -49.7779    5.2687 H   0  0  0  0  0  0  0  0  0  0  0  0
   -2.1014  -48.2234    4.6178 H   0  0  0  0  0  0  0  0  0  0  0  0
    1.7220  -47.0846    4.4662 H   0  0  0  0  0  0  0  0  0  0  0  0
   -0.0643  -46.9502    4.3330 H   0  0  0  0  0  0  0  0  0  0  0  0
    1.6556  -45.9660    6.6739 H   0  0  0  0  0  0  0  0  0  0  0  0
    0.9144  -44.9393    5.3998 H   0  0  0  0  0  0  0  0  0  0  0  0
   -0.6479  -46.6699    7.3814 H   0  0  0  0  0  0  0  0  0  0  0  0
   -0.3540  -44.9066    7.5578 H   0  0  0  0  0  0  0  0  0  0  0  0
   -2.2464  -46.0630    8.5801 H   0  0  0  0  0  0  0  0  0  0  0  0
   -4.5649  -45.3812   10.5485 H   0  0  0  0  0  0  0  0  0  0  0  0
   -5.5843  -46.7559   10.0032 H   0  0  0  0  0  0  0  0  0  0  0  0
   -3.8119  -46.9738   10.1979 H   0  0  0  0  0  0  0  0  0  0  0  0
   -6.5955  -43.6952    5.4355 H   0  0  0  0  0  0  0  0  0  0  0  0
   -6.1798  -45.0547    4.3377 H   0  0  0  0  0  0  0  0  0  0  0  0
   -7.3244  -45.3159    5.6972 H   0  0  0  0  0  0  0  0  0  0  0  0
   -3.7778  -44.8966    4.7308 H   0  0  0  0  0  0  0  0  0  0  0  0
  1  2  2  0  0  0  0
  2  3  1  0  0  0  0
  2  4  1  0  0  0  0
  4 11  1  0  0  0  0
  4 26  2  0  0  0  0
  5  6  2  0  0  0  0
  5 10  1  0  0  0  0
  5 26  1  0  0  0  0
  6  7  1  0  0  0  0
  7  8  1  0  0  0  0
  7 25  1  0  0  0  0
  8  9  2  0  0  0  0
  9 10  1  0  0  0  0
 10 11  2  0  0  0  0
 11 12  1  0  0  0  0
 12 13  1  0  0  0  0
 13 14  1  0  0  0  0
 14 15  1  0  0  0  0
 15 16  1  0  0  0  0
 16 17  2  0  0  0  0
 16 24  1  0  0  0  0
 17 18  1  0  0  0  0
 18 19  1  0  0  0  0
 18 20  2  0  0  0  0
 20 21  1  0  0  0  0
 20 22  1  0  0  0  0
 22 23  1  0  0  0  0
 22 24  2  0  0  0  0
  3 27  1  0  0  0  0
  6 28  1  0  0  0  0
  7 29  1  0  0  0  0
  8 30  1  0  0  0  0
  9 31  1  0  0  0  0
 12 32  1  0  0  0  0
 12 33  1  0  0  0  0
 13 34  1  0  0  0  0
 13 35  1  0  0  0  0
 14 36  1  0  0  0  0
 14 37  1  0  0  0  0
 17 38  1  0  0  0  0
 19 39  1  0  0  0  0
 19 40  1  0  0  0  0
 19 41  1  0  0  0  0
 23 42  1  0  0  0  0
 23 43  1  0  0  0  0
 23 44  1  0  0  0  0
 24 45  1  0  0  0  0
M  END
> <r_user_dG.exp>
-9.96486893166623

$$$$
53
  -OEChem-05192314073D
 Structure written by MMmdl.
 45 47  0     1  0  0  0  0  0999 V2000
    3.5633  -47.7725    6.2912 O   0  0  0  0  0  0  0  0  0  0  0  0
    2.9990  -48.7572    6.8105 C   0  0  0  0  0  0  0  0  0  0  0  0
    3.5991  -49.5249    7.5965 O   0  0  0  0  0  0  0  0  0  0  0  0
    1.5779  -49.0223    6.4966 C   0  0  0  0  0  0  0  0  0  0  0  0
   -0.3475  -50.2345    6.7439 C   0  0  0  0  0  0  0  0  0  0  0  0
   -1.3726  -51.1291    7.1185 C   0  0  0  0  0  0  0  0  0  0  0  0
   -2.6775  -50.9471    6.6123 C   0  0  0  0  0  0  0  0  0  0  0  0
   -2.9184  -49.8992    5.6921 C   0  0  0  0  0  0  0  0  0  0  0  0
   -1.8916  -49.0147    5.3222 C   0  0  0  0  0  0  0  0  0  0  0  0
   -0.5857  -49.1422    5.8567 C   0  0  3  0  0  0  0  0  0  0  0  0
    0.6255  -48.3732    5.7579 C   0  0  0  0  0  0  0  0  0  0  0  0
    0.7780  -47.0671    5.0307 C   0  0  0  0  0  0  0  0  0  0  0  0
    0.7971  -45.8570    5.9948 C   0  0  0  0  0  0  0  0  0  0  0  0
   -0.4751  -45.7293    6.8378 C   0  0  0  0  0  0  0  0  0  0  0  0
   -1.5902  -45.4593    5.9971 O   0  0  0  0  0  0  0  0  0  0  0  0
   -2.8366  -45.4835    6.5820 C   0  0  0  0  0  0  0  0  0  0  0  0
   -3.0790  -45.8230    7.9355 C   0  0  0  0  0  0  0  0  0  0  0  0
   -4.3932  -45.8530    8.4569 C   0  0  0  0  0  0  0  0  0  0  0  0
   -4.6030  -46.2695    9.9009 C   0  0  0  0  0  0  0  0  0  0  0  0
   -5.4830  -45.5150    7.6284 C   0  0  0  0  0  0  0  0  0  0  0  0
   -7.0947  -45.5514    8.2641 Cl  0  0  0  0  0  0  0  0  0  0  0  0
   -5.2572  -45.1565    6.2816 C   0  0  0  0  0  0  0  0  0  0  0  0
   -6.4197  -44.7794    5.3753 C   0  0  0  0  0  0  0  0  0  0  0  0
   -3.9414  -45.1545    5.7667 C   0  0  0  0  0  0  0  0  0  0  0  0
   -3.9554  -51.9815    7.1109 Cl  0  0  0  0  0  0  0  0  0  0  0  0
    0.9882  -50.1295    7.0836 N   0  0  0  0  0  0  0  0  0  0  0  0
    4.4951  -49.2289    7.7066 H   0  0  0  0  0  0  0  0  0  0  0  0
   -1.1598  -51.9486    7.7889 H   0  0  0  0  0  0  0  0  0  0  0  0
   -3.9045  -49.7779    5.2687 H   0  0  0  0  0  0  0  0  0  0  0  0
   -2.1014  -48.2234    4.6178 H   0  0  0  0  0  0  0  0  0  0  0  0
   -0.2802  -49.7571    4.9973 H   0  0  0  0  0  0  0  0  0  0  0  0
    1.7220  -47.0846    4.4662 H   0  0  0  0  0  0  0  0  0  0  0  0
   -0.0643  -46.9502    4.3330 H   0  0  0  0  0  0  0  0  0  0  0  0
    1.6556  -45.9660    6.6739 H   0  0  0  0  0  0  0  0  0  0  0  0
    0.9144  -44.9393    5.3998 H   0  0  0  0  0  0  0  0  0  0  0  0
   -0.6479  -46.6699    7.3814 H   0  0  0  0  0  0  0  0  0  0  0  0
   -0.3540  -44.9066    7.5578 H   0  0  0  0  0  0  0  0  0  0  0  0
   -2.2464  -46.0630    8.5801 H   0  0  0  0  0  0  0  0  0  0  0  0
   -4.5649  -45.3812   10.5485 H   0  0  0  0  0  0  0  0  0  0  0  0
   -5.5843  -46.7559   10.0032 H   0  0  0  0  0  0  0  0  0  0  0  0
   -3.8119  -46.9738   10.1979 H   0  0  0  0  0  0  0  0  0  0  0  0
   -6.5955  -43.6952    5.4355 H   0  0  0  0  0  0  0  0  0  0  0  0
   -6.1798  -45.0547    4.3377 H   0  0  0  0  0  0  0  0  0  0  0  0
   -7.3244  -45.3159    5.6972 H   0  0  0  0  0  0  0  0  0  0  0  0
   -3.7778  -44.8966    4.7308 H   0  0  0  0  0  0  0  0  0  0  0  0
  1  2  2  0  0  0  0
  2  3  1  0  0  0  0
  2  4  1  0  0  0  0
  4 11  2  0  0  0  0
  4 26  1  0  0  0  0
  5  6  1  0  0  0  0
  5 10  1  0  0  0  0
  5 26  2  0  0  0  0
  6  7  2  0  0  0  0
  7  8  1  0  0  0  0
  7 25  1  0  0  0  0
  8  9  2  0  0  0  0
  9 10  1  0  0  0  0
 10 11  1  0  0  0  0
 11 12  1  0  0  0  0
 12 13  1  0  0  0  0
 13 14  1  0  0  0  0
 14 15  1  0  0  0  0
 15 16  1  0  0  0  0
 16 17  2  0  0  0  0
 16 24  1  0  0  0  0
 17 18  1  0  0  0  0
 18 19  1  0  0  0  0
 18 20  2  0  0  0  0
 20 21  1  0  0  0  0
 20 22  1  0  0  0  0
 22 23  1  0  0  0  0
 22 24  2  0  0  0  0
  3 27  1  0  0  0  0
  6 28  1  0  0  0  0
  8 29  1  0  0  0  0
  9 30  1  0  0  0  0
 10 31  1  0  0  0  0
 12 32  1  0  0  0  0
 12 33  1  0  0  0  0
 13 34  1  0  0  0  0
 13 35  1  0  0  0  0
 14 36  1  0  0  0  0
 14 37  1  0  0  0  0
 17 38  1  0  0  0  0
 19 39  1  0  0  0  0
 19 40  1  0  0  0  0
 19 41  1  0  0  0  0
 23 42  1  0  0  0  0
 23 43  1  0  0  0  0
 23 44  1  0  0  0  0
 24 45  1  0  0  0  0
M  END
> <r_user_dG.exp>
-9.96486893166623

$$$$
53
  -OEChem-05192314073D
 Structure written by MMmdl.
 45 47  0     1  0  0  0  0  0999 V2000
    3.5633  -47.7725    6.2912 O   0  0  0  0  0  0  0  0  0  0  0  0
    2.9990  -48.7572    6.8105 C   0  0  0  0  0  0  0  0  0  0  0  0
    3.5991  -49.5249    7.5965 O   0  0  0  0  0  0  0  0  0  0  0  0
    1.5779  -49.0223    6.4966 C   0  0  0  0  0  0  0  0  0  0  0  0
   -0.3475  -50.2345    6.7439 C   0  0  3  0  0  0  0  0  0  0  0  0
   -1.3726  -51.1291    7.1185 C   0  0  0  0  0  0  0  0  0  0  0  0
   -2.6775  -50.9471    6.6123 C   0  0  0  0  0  0  0  0  0  0  0  0
   -2.9184  -49.8992    5.6921 C   0  0  0  0  0  0  0  0  0  0  0  0
   -1.8916  -49.0147    5.3222 C   0  0  0  0  0  0  0  0  0  0  0  0
   -0.5857  -49.1422    5.8567 C   0  0  0  0  0  0  0  0  0  0  0  0
    0.6255  -48.3732    5.7579 C   0  0  0  0  0  0  0  0  0  0  0  0
    0.7780  -47.0671    5.0307 C   0  0  0  0  0  0  0  0  0  0  0  0
    0.7971  -45.8570    5.9948 C   0  0  0  0  0  0  0  0  0  0  0  0
   -0.4751  -45.7293    6.8378 C   0  0  0  0  0  0  0  0  0  0  0  0
   -1.5902  -45.4593    5.9971 O   0  0  0  0  0  0  0  0  0  0  0  0
   -2.8366  -45.4835    6.5820 C   0  0  0  0  0  0  0  0  0  0  0  0
   -3.0790  -45.8230    7.9355 C   0  0  0  0  0  0  0  0  0  0  0  0
   -4.3932  -45.8530    8.4569 C   0  0  0  0  0  0  0  0  0  0  0  0
   -4.6030  -46.2695    9.9009 C   0  0  0  0  0  0  0  0  0  0  0  0
   -5.4830  -45.5150    7.6284 C   0  0  0  0  0  0  0  0  0  0  0  0
   -7.0947  -45.5514    8.2641 Cl  0  0  0  0  0  0  0  0  0  0  0  0
   -5.2572  -45.1565    6.2816 C   0  0  0  0  0  0  0  0  0  0  0  0
   -6.4197  -44.7794    5.3753 C   0  0  0  0  0  0  0  0  0  0  0  0
   -3.9414  -45.1545    5.7667 C   0  0  0  0  0  0  0  0  0  0  0  0
   -3.9554  -51.9815    7.1109 Cl  0  0  0  0  0  0  0  0  0  0  0  0
    0.9882  -50.1295    7.0836 N   0  0  0  0  0  0  0  0  0  0  0  0
    4.4951  -49.2289    7.7066 H   0  0  0  0  0  0  0  0  0  0  0  0
   -0.0872  -50.8790    5.8913 H   0  0  0  0  0  0  0  0  0  0  0  0
   -1.1598  -51.9486    7.7889 H   0  0  0  0  0  0  0  0  0  0  0  0
   -3.9045  -49.7779    5.2687 H   0  0  0  0  0  0  0  0  0  0  0  0
   -2.1014  -48.2234    4.6178 H   0  0  0  0  0  0  0  0  0  0  0  0
    1.7220  -47.0846    4.4662 H   0  0  0  0  0  0  0  0  0  0  0  0
   -0.0643  -46.9502    4.3330 H   0  0  0  0  0  0  0  0  0  0  0  0
    1.6556  -45.9660    6.6739 H   0  0  0  0  0  0  0  0  0  0  0  0
    0.9144  -44.9393    5.3998 H   0  0  0  0  0  0  0  0  0  0  0  0
   -0.6479  -46.6699    7.3814 H   0  0  0  0  0  0  0  0  0  0  0  0
   -0.3540  -44.9066    7.5578 H   0  0  0  0  0  0  0  0  0  0  0  0
   -2.2464  -46.0630    8.5801 H   0  0  0  0  0  0  0  0  0  0  0  0
   -4.5649  -45.3812   10.5485 H   0  0  0  0  0  0  0  0  0  0  0  0
   -5.5843  -46.7559   10.0032 H   0  0  0  0  0  0  0  0  0  0  0  0
   -3.8119  -46.9738   10.1979 H   0  0  0  0  0  0  0  0  0  0  0  0
   -6.5955  -43.6952    5.4355 H   0  0  0  0  0  0  0  0  0  0  0  0
   -6.1798  -45.0547    4.3377 H   0  0  0  0  0  0  0  0  0  0  0  0
   -7.3244  -45.3159    5.6972 H   0  0  0  0  0  0  0  0  0  0  0  0
   -3.7778  -44.8966    4.7308 H   0  0  0  0  0  0  0  0  0  0  0  0
  1  2  2  0  0  0  0
  2  3  1  0  0  0  0
  2  4  1  0  0  0  0
  4 11  1  0  0  0  0
  4 26  2  0  0  0  0
  5  6  1  0  0  0  0
  5 10  1  0  0  0  0
  5 26  1  0  0  0  0
  6  7  2  0  0  0  0
  7  8  1  0  0  0  0
  7 25  1  0  0  0  0
  8  9  2  0  0  0  0
  9 10  1  0  0  0  0
 10 11  2  0  0  0  0
 11 12  1  0  0  0  0
 12 13  1  0  0  0  0
 13 14  1  0  0  0  0
 14 15  1  0  0  0  0
 15 16  1  0  0  0  0
 16 17  2  0  0  0  0
 16 24  1  0  0  0  0
 17 18  1  0  0  0  0
 18 19  1  0  0  0  0
 18 20  2  0  0  0  0
 20 21  1  0  0  0  0
 20 22  1  0  0  0  0
 22 23  1  0  0  0  0
 22 24  2  0  0  0  0
  3 27  1  0  0  0  0
  5 28  1  0  0  0  0
  6 29  1  0  0  0  0
  8 30  1  0  0  0  0
  9 31  1  0  0  0  0
 12 32  1  0  0  0  0
 12 33  1  0  0  0  0
 13 34  1  0  0  0  0
 13 35  1  0  0  0  0
 14 36  1  0  0  0  0
 14 37  1  0  0  0  0
 17 38  1  0  0  0  0
 19 39  1  0  0  0  0
 19 40  1  0  0  0  0
 19 41  1  0  0  0  0
 23 42  1  0  0  0  0
 23 43  1  0  0  0  0
 23 44  1  0  0  0  0
 24 45  1  0  0  0  0
M  END
> <r_user_dG.exp>
-9.96486893166623

$$$$
53
  -OEChem-05192314073D
 Structure written by MMmdl.
 45 47  0     0  0  0  0  0  0999 V2000
    3.5633  -47.7725    6.2912 O   0  0  0  0  0  0  0  0  0  0  0  0
    2.9990  -48.7572    6.8105 C   0  0  0  0  0  0  0  0  0  0  0  0
    3.5991  -49.5249    7.5965 O   0  0  0  0  0  0  0  0  0  0  0  0
    1.5779  -49.0223    6.4966 C   0  0  0  0  0  0  0  0  0  0  0  0
   -0.3475  -50.2345    6.7439 C   0  0  0  0  0  0  0  0  0  0  0  0
   -1.3726  -51.1291    7.1185 C   0  0  0  0  0  0  0  0  0  0  0  0
   -2.6775  -50.9471    6.6123 C   0  0  0  0  0  0  0  0  0  0  0  0
   -2.9184  -49.8992    5.6921 C   0  0  0  0  0  0  0  0  0  0  0  0
   -1.8916  -49.0147    5.3222 C   0  0  0  0  0  0  0  0  0  0  0  0
   -0.5857  -49.1422    5.8567 C   0  0  0  0  0  0  0  0  0  0  0  0
    0.6255  -48.3732    5.7579 C   0  0  0  0  0  0  0  0  0  0  0  0
    0.7780  -47.0671    5.0307 C   0  0  0  0  0  0  0  0  0  0  0  0
    0.7971  -45.8570    5.9948 C   0  0  0  0  0  0  0  0  0  0  0  0
   -0.4751  -45.7293    6.8378 C   0  0  0  0  0  0  0  0  0  0  0  0
   -1.5902  -45.4593    5.9971 O   0  0  0  0  0  0  0  0  0  0  0  0
   -2.8366  -45.4835    6.5820 C   0  0  0  0  0  0  0  0  0  0  0  0
   -3.0790  -45.8230    7.9355 C   0  0  0  0  0  0  0  0  0  0  0  0
   -4.3932  -45.8530    8.4569 C   0  0  0  0  0  0  0  0  0  0  0  0
   -4.6030  -46.2695    9.9009 C   0  0  0  0  0  0  0  0  0  0  0  0
   -5.4830  -45.5150    7.6284 C   0  0  0  0  0  0  0  0  0  0  0  0
   -7.0947  -45.5514    8.2641 Cl  0  0  0  0  0  0  0  0  0  0  0  0
   -5.2572  -45.1565    6.2816 C   0  0  0  0  0  0  0  0  0  0  0  0
   -6.4197  -44.7794    5.3753 C   0  0  0  0  0  0  0  0  0  0  0  0
   -3.9414  -45.1545    5.7667 C   0  0  0  0  0  0  0  0  0  0  0  0
   -3.9554  -51.9815    7.1109 Cl  0  0  0  0  0  0  0  0  0  0  0  0
    0.9882  -50.1295    7.0836 N   0  0  0  0  0  0  0  0  0  0  0  0
    4.4951  -49.2289    7.7066 H   0  0  0  0  0  0  0  0  0  0  0  0
   -1.1598  -51.9486    7.7889 H   0  0  0  0  0  0  0  0  0  0  0  0
   -3.9045  -49.7779    5.2687 H   0  0  0  0  0  0  0  0  0  0  0  0
   -1.7905  -49.0936    4.2297 H   0  0  0  0  0  0  0  0  0  0  0  0
   -2.2395  -48.0051    5.5863 H   0  0  0  0  0  0  0  0  0  0  0  0
    1.7220  -47.0846    4.4662 H   0  0  0  0  0  0  0  0  0  0  0  0
   -0.0643  -46.9502    4.3330 H   0  0  0  0  0  0  0  0  0  0  0  0
    1.6556  -45.9660    6.6739 H   0  0  0  0  0  0  0  0  0  0  0  0
    0.9144  -44.9393    5.3998 H   0  0  0  0  0  0  0  0  0  0  0  0
   -0.6479  -46.6699    7.3814 H   0  0  0  0  0  0  0  0  0  0  0  0
   -0.3540  -44.9066    7.5578 H   0  0  0  0  0  0  0  0  0  0  0  0
   -2.2464  -46.0630    8.5801 H   0  0  0  0  0  0  0  0  0  0  0  0
   -4.5649  -45.3812   10.5485 H   0  0  0  0  0  0  0  0  0  0  0  0
   -5.5843  -46.7559   10.0032 H   0  0  0  0  0  0  0  0  0  0  0  0
   -3.8119  -46.9738   10.1979 H   0  0  0  0  0  0  0  0  0  0  0  0
   -6.5955  -43.6952    5.4355 H   0  0  0  0  0  0  0  0  0  0  0  0
   -6.1798  -45.0547    4.3377 H   0  0  0  0  0  0  0  0  0  0  0  0
   -7.3244  -45.3159    5.6972 H   0  0  0  0  0  0  0  0  0  0  0  0
   -3.7778  -44.8966    4.7308 H   0  0  0  0  0  0  0  0  0  0  0  0
  1  2  2  0  0  0  0
  2  3  1  0  0  0  0
  2  4  1  0  0  0  0
  4 11  1  0  0  0  0
  4 26  2  0  0  0  0
  5  6  2  0  0  0  0
  5 10  1  0  0  0  0
  5 26  1  0  0  0  0
  6  7  1  0  0  0  0
  7  8  2  0  0  0  0
  7 25  1  0  0  0  0
  8  9  1  0  0  0  0
  9 10  1  0  0  0  0
 10 11  2  0  0  0  0
 11 12  1  0  0  0  0
 12 13  1  0  0  0  0
 13 14  1  0  0  0  0
 14 15  1  0  0  0  0
 15 16  1  0  0  0  0
 16 17  2  0  0  0  0
 16 24  1  0  0  0  0
 17 18  1  0  0  0  0
 18 19  1  0  0  0  0
 18 20  2  0  0  0  0
 20 21  1  0  0  0  0
 20 22  1  0  0  0  0
 22 23  1  0  0  0  0
 22 24  2  0  0  0  0
  3 27  1  0  0  0  0
  6 28  1  0  0  0  0
  8 29  1  0  0  0  0
  9 30  1  0  0  0  0
  9 31  1  0  0  0  0
 12 32  1  0  0  0  0
 12 33  1  0  0  0  0
 13 34  1  0  0  0  0
 13 35  1  0  0  0  0
 14 36  1  0  0  0  0
 14 37  1  0  0  0  0
 17 38  1  0  0  0  0
 19 39  1  0  0  0  0
 19 40  1  0  0  0  0
 19 41  1  0  0  0  0
 23 42  1  0  0  0  0
 23 43  1  0  0  0  0
 23 44  1  0  0  0  0
 24 45  1  0  0  0  0
M  END
> <r_user_dG.exp>
-9.96486893166623

$$$$
53
  -OEChem-05192314073D
 Structure written by MMmdl.
 45 47  0     0  0  0  0  0  0999 V2000
    3.5633  -47.7725    6.2912 O   0  0  0  0  0  0  0  0  0  0  0  0
    2.9990  -48.7572    6.8105 C   0  0  0  0  0  0  0  0  0  0  0  0
    3.5991  -49.5249    7.5965 O   0  0  0  0  0  0  0  0  0  0  0  0
    1.5779  -49.0223    6.4966 C   0  0  0  0  0  0  0  0  0  0  0  0
   -0.3475  -50.2345    6.7439 C   0  0  0  0  0  0  0  0  0  0  0  0
   -1.3726  -51.1291    7.1185 C   0  0  0  0  0  0  0  0  0  0  0  0
   -2.6775  -50.9471    6.6123 C   0  0  0  0  0  0  0  0  0  0  0  0
   -2.9184  -49.8992    5.6921 C   0  0  0  0  0  0  0  0  0  0  0  0
   -1.8916  -49.0147    5.3222 C   0  0  0  0  0  0  0  0  0  0  0  0
   -0.5857  -49.1422    5.8567 C   0  0  0  0  0  0  0  0  0  0  0  0
    0.6255  -48.3732    5.7579 C   0  0  0  0  0  0  0  0  0  0  0  0
    0.7780  -47.0671    5.0307 C   0  0  0  0  0  0  0  0  0  0  0  0
    0.7971  -45.8570    5.9948 C   0  0  0  0  0  0  0  0  0  0  0  0
   -0.4751  -45.7293    6.8378 C   0  0  0  0  0  0  0  0  0  0  0  0
   -1.5902  -45.4593    5.9971 O   0  0  0  0  0  0  0  0  0  0  0  0
   -2.8366  -45.4835    6.5820 C   0  0  0  0  0  0  0  0  0  0  0  0
   -3.0790  -45.8230    7.9355 C   0  0  0  0  0  0  0  0  0  0  0  0
   -4.3932  -45.8530    8.4569 C   0  0  0  0  0  0  0  0  0  0  0  0
   -4.6030  -46.2695    9.9009 C   0  0  0  0  0  0  0  0  0  0  0  0
   -5.4830  -45.5150    7.6284 C   0  0  0  0  0  0  0  0  0  0  0  0
   -7.0947  -45.5514    8.2641 Cl  0  0  0  0  0  0  0  0  0  0  0  0
   -5.2572  -45.1565    6.2816 C   0  0  0  0  0  0  0  0  0  0  0  0
   -6.4197  -44.7794    5.3753 C   0  0  0  0  0  0  0  0  0  0  0  0
   -3.9414  -45.1545    5.7667 C   0  0  0  0  0  0  0  0  0  0  0  0
   -3.9554  -51.9815    7.1109 Cl  0  0  0  0  0  0  0  0  0  0  0  0
    0.9882  -50.1295    7.0836 N   0  0  0  0  0  0  0  0  0  0  0  0
    4.4951  -49.2289    7.7066 H   0  0  0  0  0  0  0  0  0  0  0  0
   -1.1598  -51.9486    7.7889 H   0  0  0  0  0  0  0  0  0  0  0  0
   -3.2739  -50.3720    4.7647 H   0  0  0  0  0  0  0  0  0  0  0  0
   -3.7226  -49.2837    6.1215 H   0  0  0  0  0  0  0  0  0  0  0  0
   -2.1014  -48.2234    4.6178 H   0  0  0  0  0  0  0  0  0  0  0  0
    1.7220  -47.0846    4.4662 H   0  0  0  0  0  0  0  0  0  0  0  0
   -0.0643  -46.9502    4.3330 H   0  0  0  0  0  0  0  0  0  0  0  0
    1.6556  -45.9660    6.6739 H   0  0  0  0  0  0  0  0  0  0  0  0
    0.9144  -44.9393    5.3998 H   0  0  0  0  0  0  0  0  0  0  0  0
   -0.6479  -46.6699    7.3814 H   0  0  0  0  0  0  0  0  0  0  0  0
   -0.3540  -44.9066    7.5578 H   0  0  0  0  0  0  0  0  0  0  0  0
   -2.2464  -46.0630    8.5801 H   0  0  0  0  0  0  0  0  0  0  0  0
   -4.5649  -45.3812   10.5485 H   0  0  0  0  0  0  0  0  0  0  0  0
   -5.5843  -46.7559   10.0032 H   0  0  0  0  0  0  0  0  0  0  0  0
   -3.8119  -46.9738   10.1979 H   0  0  0  0  0  0  0  0  0  0  0  0
   -6.5955  -43.6952    5.4355 H   0  0  0  0  0  0  0  0  0  0  0  0
   -6.1798  -45.0547    4.3377 H   0  0  0  0  0  0  0  0  0  0  0  0
   -7.3244  -45.3159    5.6972 H   0  0  0  0  0  0  0  0  0  0  0  0
   -3.7778  -44.8966    4.7308 H   0  0  0  0  0  0  0  0  0  0  0  0
  1  2  2  0  0  0  0
  2  3  1  0  0  0  0
  2  4  1  0  0  0  0
  4 11  2  0  0  0  0
  4 26  1  0  0  0  0
  5  6  1  0  0  0  0
  5 10  1  0  0  0  0
  5 26  2  0  0  0  0
  6  7  2  0  0  0  0
  7  8  1  0  0  0  0
  7 25  1  0  0  0  0
  8  9  1  0  0  0  0
  9 10  2  0  0  0  0
 10 11  1  0  0  0  0
 11 12  1  0  0  0  0
 12 13  1  0  0  0  0
 13 14  1  0  0  0  0
 14 15  1  0  0  0  0
 15 16  1  0  0  0  0
 16 17  2  0  0  0  0
 16 24  1  0  0  0  0
 17 18  1  0  0  0  0
 18 19  1  0  0  0  0
 18 20  2  0  0  0  0
 20 21  1  0  0  0  0
 20 22  1  0  0  0  0
 22 23  1  0  0  0  0
 22 24  2  0  0  0  0
  3 27  1  0  0  0  0
  6 28  1  0  0  0  0
  8 29  1  0  0  0  0
  8 30  1  0  0  0  0
  9 31  1  0  0  0  0
 12 32  1  0  0  0  0
 12 33  1  0  0  0  0
 13 34  1  0  0  0  0
 13 35  1  0  0  0  0
 14 36  1  0  0  0  0
 14 37  1  0  0  0  0
 17 38  1  0  0  0  0
 19 39  1  0  0  0  0
 19 40  1  0  0  0  0
 19 41  1  0  0  0  0
 23 42  1  0  0  0  0
 23 43  1  0  0  0  0
 23 44  1  0  0  0  0
 24 45  1  0  0  0  0
M  END
> <r_user_dG.exp>
-9.96486893166623

$$$$
53
  -OEChem-05192314073D
 Structure written by MMmdl.
 45 47  0     0  0  0  0  0  0999 V2000
    3.5633  -47.7725    6.2912 O   0  0  0  0  0  0  0  0  0  0  0  0
    2.9990  -48.7572    6.8105 C   0  0  0  0  0  0  0  0  0  0  0  0
    3.5991  -49.5249    7.5965 O   0  0  0  0  0  0  0  0  0  0  0  0
    1.5779  -49.0223    6.4966 C   0  0  0  0  0  0  0  0  0  0  0  0
   -0.3475  -50.2345    6.7439 C   0  0  0  0  0  0  0  0  0  0  0  0
   -1.3726  -51.1291    7.1185 C   0  0  0  0  0  0  0  0  0  0  0  0
   -2.6775  -50.9471    6.6123 C   0  0  0  0  0  0  0  0  0  0  0  0
   -2.9184  -49.8992    5.6921 C   0  0  0  0  0  0  0  0  0  0  0  0
   -1.8916  -49.0147    5.3222 C   0  0  0  0  0  0  0  0  0  0  0  0
   -0.5857  -49.1422    5.8567 C   0  0  0  0  0  0  0  0  0  0  0  0
    0.6255  -48.3732    5.7579 C   0  0  0  0  0  0  0  0  0  0  0  0
    0.7780  -47.0671    5.0307 C   0  0  0  0  0  0  0  0  0  0  0  0
    0.7971  -45.8570    5.9948 C   0  0  0  0  0  0  0  0  0  0  0  0
   -0.4751  -45.7293    6.8378 C   0  0  0  0  0  0  0  0  0  0  0  0
   -1.5902  -45.4593    5.9971 O   0  0  0  0  0  0  0  0  0  0  0  0
   -2.8366  -45.4835    6.5820 C   0  0  0  0  0  0  0  0  0  0  0  0
   -3.0790  -45.8230    7.9355 C   0  0  0  0  0  0  0  0  0  0  0  0
   -4.3932  -45.8530    8.4569 C   0  0  0  0  0  0  0  0  0  0  0  0
   -4.6030  -46.2695    9.9009 C   0  0  0  0  0  0  0  0  0  0  0  0
   -5.4830  -45.5150    7.6284 C   0  0  0  0  0  0  0  0  0  0  0  0
   -7.0947  -45.5514    8.2641 Cl  0  0  0  0  0  0  0  0  0  0  0  0
   -5.2572  -45.1565    6.2816 C   0  0  0  0  0  0  0  0  0  0  0  0
   -6.4197  -44.7794    5.3753 C   0  0  0  0  0  0  0  0  0  0  0  0
   -3.9414  -45.1545    5.7667 C   0  0  0  0  0  0  0  0  0  0  0  0
   -3.9554  -51.9815    7.1109 Cl  0  0  0  0  0  0  0  0  0  0  0  0
    0.9882  -50.1295    7.0836 N   0  0  0  0  0  0  0  0  0  0  0  0
    4.4951  -49.2289    7.7066 H   0  0  0  0  0  0  0  0  0  0  0  0
   -1.0479  -52.1339    6.8103 H   0  0  0  0  0  0  0  0  0  0  0  0
   -1.4470  -51.0882    8.2152 H   0  0  0  0  0  0  0  0  0  0  0  0
   -3.9045  -49.7779    5.2687 H   0  0  0  0  0  0  0  0  0  0  0  0
   -2.1014  -48.2234    4.6178 H   0  0  0  0  0  0  0  0  0  0  0  0
    1.7220  -47.0846    4.4662 H   0  0  0  0  0  0  0  0  0  0  0  0
   -0.0643  -46.9502    4.3330 H   0  0  0  0  0  0  0  0  0  0  0  0
    1.6556  -45.9660    6.6739 H   0  0  0  0  0  0  0  0  0  0  0  0
    0.9144  -44.9393    5.3998 H   0  0  0  0  0  0  0  0  0  0  0  0
   -0.6479  -46.6699    7.3814 H   0  0  0  0  0  0  0  0  0  0  0  0
   -0.3540  -44.9066    7.5578 H   0  0  0  0  0  0  0  0  0  0  0  0
   -2.2464  -46.0630    8.5801 H   0  0  0  0  0  0  0  0  0  0  0  0
   -4.5649  -45.3812   10.5485 H   0  0  0  0  0  0  0  0  0  0  0  0
   -5.5843  -46.7559   10.0032 H   0  0  0  0  0  0  0  0  0  0  0  0
   -3.8119  -46.9738   10.1979 H   0  0  0  0  0  0  0  0  0  0  0  0
   -6.5955  -43.6952    5.4355 H   0  0  0  0  0  0  0  0  0  0  0  0
   -6.1798  -45.0547    4.3377 H   0  0  0  0  0  0  0  0  0  0  0  0
   -7.3244  -45.3159    5.6972 H   0  0  0  0  0  0  0  0  0  0  0  0
   -3.7778  -44.8966    4.7308 H   0  0  0  0  0  0  0  0  0  0  0  0
  1  2  2  0  0  0  0
  2  3  1  0  0  0  0
  2  4  1  0  0  0  0
  4 11  2  0  0  0  0
  4 26  1  0  0  0  0
  5  6  1  0  0  0  0
  5 10  1  0  0  0  0
  5 26  2  0  0  0  0
  6  7  1  0  0  0  0
  7  8  2  0  0  0  0
  7 25  1  0  0  0  0
  8  9  1  0  0  0  0
  9 10  2  0  0  0  0
 10 11  1  0  0  0  0
 11 12  1  0  0  0  0
 12 13  1  0  0  0  0
 13 14  1  0  0  0  0
 14 15  1  0  0  0  0
 15 16  1  0  0  0  0
 16 17  2  0  0  0  0
 16 24  1  0  0  0  0
 17 18  1  0  0  0  0
 18 19  1  0  0  0  0
 18 20  2  0  0  0  0
 20 21  1  0  0  0  0
 20 22  1  0  0  0  0
 22 23  1  0  0  0  0
 22 24  2  0  0  0  0
  3 27  1  0  0  0  0
  6 28  1  0  0  0  0
  6 29  1  0  0  0  0
  8 30  1  0  0  0  0
  9 31  1  0  0  0  0
 12 32  1  0  0  0  0
 12 33  1  0  0  0  0
 13 34  1  0  0  0  0
 13 35  1  0  0  0  0
 14 36  1  0  0  0  0
 14 37  1  0  0  0  0
 17 38  1  0  0  0  0
 19 39  1  0  0  0  0
 19 40  1  0  0  0  0
 19 41  1  0  0  0  0
 23 42  1  0  0  0  0
 23 43  1  0  0  0  0
 23 44  1  0  0  0  0
 24 45  1  0  0  0  0
M  END
> <r_user_dG.exp>
-9.96486893166623

$$$$
53
  -OEChem-05192314073D
 Structure written by MMmdl.
 45 47  0     0  0  0  0  0  0999 V2000
    3.5633  -47.7725    6.2912 O   0  0  0  0  0  0  0  0  0  0  0  0
    2.9990  -48.7572    6.8105 C   0  0  0  0  0  0  0  0  0  0  0  0
    3.5991  -49.5249    7.5965 O   0  0  0  0  0  0  0  0  0  0  0  0
    1.5779  -49.0223    6.4966 C   0  0  0  0  0  0  0  0  0  0  0  0
   -0.3475  -50.2345    6.7439 C   0  0  0  0  0  0  0  0  0  0  0  0
   -1.3726  -51.1291    7.1185 C   0  0  0  0  0  0  0  0  0  0  0  0
   -2.6775  -50.9471    6.6123 C   0  0  0  0  0  0  0  0  0  0  0  0
   -2.9184  -49.8992    5.6921 C   0  0  0  0  0  0  0  0  0  0  0  0
   -1.8916  -49.0147    5.3222 C   0  0  0  0  0  0  0  0  0  0  0  0
   -0.5857  -49.1422    5.8567 C   0  0  0  0  0  0  0  0  0  0  0  0
    0.6255  -48.3732    5.7579 C   0  0  0  0  0  0  0  0  0  0  0  0
    0.7780  -47.0671    5.0307 C   0  0  0  0  0  0  0  0  0  0  0  0
    0.7971  -45.8570    5.9948 C   0  0  0  0  0  0  0  0  0  0  0  0
   -0.4751  -45.7293    6.8378 C   0  0  0  0  0  0  0  0  0  0  0  0
   -1.5902  -45.4593    5.9971 O   0  0  0  0  0  0  0  0  0  0  0  0
   -2.8366  -45.4835    6.5820 C   0  0  0  0  0  0  0  0  0  0  0  0
   -3.0790  -45.8230    7.9355 C   0  0  0  0  0  0  0  0  0  0  0  0
   -4.3932  -45.8530    8.4569 C   0  0  0  0  0  0  0  0  0  0  0  0
   -4.6030  -46.2695    9.9009 C   0  0  0  0  0  0  0  0  0  0  0  0
   -5.4830  -45.5150    7.6284 C   0  0  0  0  0  0  0  0  0  0  0  0
   -7.0947  -45.5514    8.2641 Cl  0  0  0  0  0  0  0  0  0  0  0  0
   -5.2572  -45.1565    6.2816 C   0  0  0  0  0  0  0  0  0  0  0  0
   -6.4197  -44.7794    5.3753 C   0  0  0  0  0  0  0  0  0  0  0  0
   -3.9414  -45.1545    5.7667 C   0  0  0  0  0  0  0  0  0  0  0  0
   -3.9554  -51.9815    7.1109 Cl  0  0  0  0  0  0  0  0  0  0  0  0
    0.9882  -50.1295    7.0836 N   0  0  0  0  0  0  0  0  0  0  0  0
    2.9492  -47.3152    5.7289 H   0  0  0  0  0  0  0  0  0  0  0  0
    3.0071  -50.2098    7.8846 H   0  0  0  0  0  0  0  0  0  0  0  0
   -1.1598  -51.9486    7.7889 H   0  0  0  0  0  0  0  0  0  0  0  0
   -3.9045  -49.7779    5.2687 H   0  0  0  0  0  0  0  0  0  0  0  0
   -2.1014  -48.2234    4.6178 H   0  0  0  0  0  0  0  0  0  0  0  0
    1.7220  -47.0846    4.4662 H   0  0  0  0  0  0  0  0  0  0  0  0
   -0.0643  -46.9502    4.3330 H   0  0  0  0  0  0  0  0  0  0  0  0
    1.6556  -45.9660    6.6739 H   0  0  0  0  0  0  0  0  0  0  0  0
    0.9144  -44.9393    5.3998 H   0  0  0  0  0  0  0  0  0  0  0  0
   -0.6479  -46.6699    7.3814 H   0  0  0  0  0  0  0  0  0  0  0  0
   -0.3540  -44.9066    7.5578 H   0  0  0  0  0  0  0  0  0  0  0  0
   -2.2464  -46.0630    8.5801 H   0  0  0  0  0  0  0  0  0  0  0  0
   -4.5649  -45.3812   10.5485 H   0  0  0  0  0  0  0  0  0  0  0  0
   -5.5843  -46.7559   10.0032 H   0  0  0  0  0  0  0  0  0  0  0  0
   -3.8119  -46.9738   10.1979 H   0  0  0  0  0  0  0  0  0  0  0  0
   -6.5955  -43.6952    5.4355 H   0  0  0  0  0  0  0  0  0  0  0  0
   -6.1798  -45.0547    4.3377 H   0  0  0  0  0  0  0  0  0  0  0  0
   -7.3244  -45.3159    5.6972 H   0  0  0  0  0  0  0  0  0  0  0  0
   -3.7778  -44.8966    4.7308 H   0  0  0  0  0  0  0  0  0  0  0  0
  1  2  1  0  0  0  0
  2  3  1  0  0  0  0
  2  4  2  0  0  0  0
  4 11  1  0  0  0  0
  4 26  1  0  0  0  0
  5  6  1  0  0  0  0
  5 10  1  0  0  0  0
  5 26  2  0  0  0  0
  6  7  2  0  0  0  0
  7  8  1  0  0  0  0
  7 25  1  0  0  0  0
  8  9  2  0  0  0  0
  9 10  1  0  0  0  0
 10 11  2  0  0  0  0
 11 12  1  0  0  0  0
 12 13  1  0  0  0  0
 13 14  1  0  0  0  0
 14 15  1  0  0  0  0
 15 16  1  0  0  0  0
 16 17  2  0  0  0  0
 16 24  1  0  0  0  0
 17 18  1  0  0  0  0
 18 19  1  0  0  0  0
 18 20  2  0  0  0  0
 20 21  1  0  0  0  0
 20 22  1  0  0  0  0
 22 23  1  0  0  0  0
 22 24  2  0  0  0  0
  1 27  1  0  0  0  0
  3 28  1  0  0  0  0
  6 29  1  0  0  0  0
  8 30  1  0  0  0  0
  9 31  1  0  0  0  0
 12 32  1  0  0  0  0
 12 33  1  0  0  0  0
 13 34  1  0  0  0  0
 13 35  1  0  0  0  0
 14 36  1  0  0  0  0
 14 37  1  0  0  0  0
 17 38  1  0  0  0  0
 19 39  1  0  0  0  0
 19 40  1  0  0  0  0
 19 41  1  0  0  0  0
 23 42  1  0  0  0  0
 23 43  1  0  0  0  0
 23 44  1  0  0  0  0
 24 45  1  0  0  0  0
M  END
> <r_user_dG.exp>
-9.96486893166623

$$$$
