51
  -OEChem-05192314073D
 Structure written by MMmdl.
 45 48  0     0  0  0  0  0  0999 V2000
    3.7527  -49.6152    6.8636 O   0  0  0  0  0  0  0  0  0  0  0  0
    2.8848  -48.7317    6.6600 C   0  0  0  0  0  0  0  0  0  0  0  0
    3.1745  -47.5142    6.7244 O   0  0  0  0  0  0  0  0  0  0  0  0
    1.4963  -49.1647    6.3449 C   0  0  0  0  0  0  0  0  0  0  0  0
   -0.1706  -50.7326    6.1724 C   0  0  0  0  0  0  0  0  0  0  0  0
   -0.9638  -51.8980    6.1848 C   0  0  0  0  0  0  0  0  0  0  0  0
   -2.3385  -51.8063    5.8920 C   0  0  0  0  0  0  0  0  0  0  0  0
   -2.8945  -50.5470    5.5892 C   0  0  0  0  0  0  0  0  0  0  0  0
   -2.1048  -49.3755    5.5930 C   0  0  0  0  0  0  0  0  0  0  0  0
   -0.7152  -49.4395    5.8829 C   0  0  0  0  0  0  0  0  0  0  0  0
    0.3471  -48.4704    6.0111 C   0  0  0  0  0  0  0  0  0  0  0  0
    0.2138  -46.9863    5.9181 C   0  0  0  0  0  0  0  0  0  0  0  0
   -0.0845  -46.4209    7.3062 C   0  0  0  0  0  0  0  0  0  0  0  0
   -0.6144  -44.9916    7.3052 C   0  0  0  0  0  0  0  0  0  0  0  0
   -1.9032  -44.9246    6.7062 O   0  0  0  0  0  0  0  0  0  0  0  0
   -3.0236  -45.1515    7.4787 C   0  0  0  0  0  0  0  0  0  0  0  0
   -5.3750  -45.5596    9.0081 C   0  0  0  0  0  0  0  0  0  0  0  0
   -4.1326  -45.9972    9.4926 C   0  0  0  0  0  0  0  0  0  0  0  0
   -2.9744  -45.8157    8.7239 C   0  0  0  0  0  0  0  0  0  0  0  0
   -2.8919  -47.8611    5.2687 Cl  0  0  0  0  0  0  0  0  0  0  0  0
   -5.4558  -44.9041    7.7675 C   0  0  0  0  0  0  0  0  0  0  0  0
   -4.2759  -44.6954    7.0025 C   0  0  0  0  0  0  0  0  0  0  0  0
   -4.3683  -44.0049    5.7701 C   0  0  0  0  0  0  0  0  0  0  0  0
   -5.6111  -43.5273    5.3116 C   0  0  0  0  0  0  0  0  0  0  0  0
   -6.7775  -43.7552    6.0709 C   0  0  0  0  0  0  0  0  0  0  0  0
   -6.7018  -44.4463    7.2927 C   0  0  0  0  0  0  0  0  0  0  0  0
    1.1745  -50.5105    6.4276 N   0  0  0  0  0  0  0  0  0  0  0  0
    4.0952  -47.4182    6.9380 H   0  0  0  0  0  0  0  0  0  0  0  0
   -0.5203  -52.8549    6.4173 H   0  0  0  0  0  0  0  0  0  0  0  0
   -2.9590  -52.6902    5.8994 H   0  0  0  0  0  0  0  0  0  0  0  0
   -3.9452  -50.4762    5.3495 H   0  0  0  0  0  0  0  0  0  0  0  0
    1.1524  -46.5556    5.5393 H   0  0  0  0  0  0  0  0  0  0  0  0
   -0.6087  -46.7329    5.2330 H   0  0  0  0  0  0  0  0  0  0  0  0
   -0.8357  -47.0656    7.7858 H   0  0  0  0  0  0  0  0  0  0  0  0
    0.8455  -46.4423    7.8932 H   0  0  0  0  0  0  0  0  0  0  0  0
   -0.6811  -44.6322    8.3427 H   0  0  0  0  0  0  0  0  0  0  0  0
    0.0787  -44.3517    6.7394 H   0  0  0  0  0  0  0  0  0  0  0  0
   -6.2699  -45.7267    9.5892 H   0  0  0  0  0  0  0  0  0  0  0  0
   -4.0687  -46.4746   10.4593 H   0  0  0  0  0  0  0  0  0  0  0  0
   -2.0296  -46.1897    9.0898 H   0  0  0  0  0  0  0  0  0  0  0  0
   -3.4798  -43.8434    5.1777 H   0  0  0  0  0  0  0  0  0  0  0  0
   -5.6711  -42.9866    4.3786 H   0  0  0  0  0  0  0  0  0  0  0  0
   -7.7316  -43.3978    5.7127 H   0  0  0  0  0  0  0  0  0  0  0  0
   -7.5981  -44.6265    7.8676 H   0  0  0  0  0  0  0  0  0  0  0  0
    1.8315  -51.2325    6.6446 H   0  0  0  0  0  0  0  0  0  0  0  0
  1  2  2  0  0  0  0
  2  3  1  0  0  0  0
  2  4  1  0  0  0  0
  4 11  2  0  0  0  0
  4 27  1  0  0  0  0
  5  6  2  0  0  0  0
  5 10  1  0  0  0  0
  5 27  1  0  0  0  0
  6  7  1  0  0  0  0
  7  8  2  0  0  0  0
  8  9  1  0  0  0  0
  9 10  2  0  0  0  0
  9 20  1  0  0  0  0
 10 11  1  0  0  0  0
 11 12  1  0  0  0  0
 12 13  1  0  0  0  0
 13 14  1  0  0  0  0
 14 15  1  0  0  0  0
 15 16  1  0  0  0  0
 16 19  2  0  0  0  0
 16 22  1  0  0  0  0
 17 18  2  0  0  0  0
 17 21  1  0  0  0  0
 18 19  1  0  0  0  0
 21 22  2  0  0  0  0
 21 26  1  0  0  0  0
 22 23  1  0  0  0  0
 23 24  2  0  0  0  0
 24 25  1  0  0  0  0
 25 26  2  0  0  0  0
  3 28  1  0  0  0  0
  6 29  1  0  0  0  0
  7 30  1  0  0  0  0
  8 31  1  0  0  0  0
 12 32  1  0  0  0  0
 12 33  1  0  0  0  0
 13 34  1  0  0  0  0
 13 35  1  0  0  0  0
 14 36  1  0  0  0  0
 14 37  1  0  0  0  0
 17 38  1  0  0  0  0
 18 39  1  0  0  0  0
 19 40  1  0  0  0  0
 23 41  1  0  0  0  0
 24 42  1  0  0  0  0
 25 43  1  0  0  0  0
 26 44  1  0  0  0  0
 27 45  1  0  0  0  0
M  END
> <r_user_dG.exp>
-8.44846494324944

$$$$
51
  -OEChem-05192314073D
 Structure written by MMmdl.
 45 48  0     1  0  0  0  0  0999 V2000
    3.7527  -49.6152    6.8636 O   0  0  0  0  0  0  0  0  0  0  0  0
    2.8848  -48.7317    6.6600 C   0  0  0  0  0  0  0  0  0  0  0  0
    3.1745  -47.5142    6.7244 O   0  0  0  0  0  0  0  0  0  0  0  0
    1.4963  -49.1647    6.3449 C   0  0  0  0  0  0  0  0  0  0  0  0
   -0.1706  -50.7326    6.1724 C   0  0  0  0  0  0  0  0  0  0  0  0
   -0.9638  -51.8980    6.1848 C   0  0  0  0  0  0  0  0  0  0  0  0
   -2.3385  -51.8063    5.8920 C   0  0  0  0  0  0  0  0  0  0  0  0
   -2.8945  -50.5470    5.5892 C   0  0  0  0  0  0  0  0  0  0  0  0
   -2.1048  -49.3755    5.5930 C   0  0  0  0  0  0  0  0  0  0  0  0
   -0.7152  -49.4395    5.8829 C   0  0  0  0  0  0  0  0  0  0  0  0
    0.3471  -48.4704    6.0111 C   0  0  3  0  0  0  0  0  0  0  0  0
    0.2138  -46.9863    5.9181 C   0  0  0  0  0  0  0  0  0  0  0  0
   -0.0845  -46.4209    7.3062 C   0  0  0  0  0  0  0  0  0  0  0  0
   -0.6144  -44.9916    7.3052 C   0  0  0  0  0  0  0  0  0  0  0  0
   -1.9032  -44.9246    6.7062 O   0  0  0  0  0  0  0  0  0  0  0  0
   -3.0236  -45.1515    7.4787 C   0  0  0  0  0  0  0  0  0  0  0  0
   -5.3750  -45.5596    9.0081 C   0  0  0  0  0  0  0  0  0  0  0  0
   -4.1326  -45.9972    9.4926 C   0  0  0  0  0  0  0  0  0  0  0  0
   -2.9744  -45.8157    8.7239 C   0  0  0  0  0  0  0  0  0  0  0  0
   -2.8919  -47.8611    5.2687 Cl  0  0  0  0  0  0  0  0  0  0  0  0
   -5.4558  -44.9041    7.7675 C   0  0  0  0  0  0  0  0  0  0  0  0
   -4.2759  -44.6954    7.0025 C   0  0  0  0  0  0  0  0  0  0  0  0
   -4.3683  -44.0049    5.7701 C   0  0  0  0  0  0  0  0  0  0  0  0
   -5.6111  -43.5273    5.3116 C   0  0  0  0  0  0  0  0  0  0  0  0
   -6.7775  -43.7552    6.0709 C   0  0  0  0  0  0  0  0  0  0  0  0
   -6.7018  -44.4463    7.2927 C   0  0  0  0  0  0  0  0  0  0  0  0
    1.1745  -50.5105    6.4276 N   0  0  0  0  0  0  0  0  0  0  0  0
    4.0952  -47.4182    6.9380 H   0  0  0  0  0  0  0  0  0  0  0  0
   -0.5203  -52.8549    6.4173 H   0  0  0  0  0  0  0  0  0  0  0  0
   -2.9590  -52.6902    5.8994 H   0  0  0  0  0  0  0  0  0  0  0  0
   -3.9452  -50.4762    5.3495 H   0  0  0  0  0  0  0  0  0  0  0  0
    0.5802  -48.5433    4.9386 H   0  0  0  0  0  0  0  0  0  0  0  0
    1.1524  -46.5556    5.5393 H   0  0  0  0  0  0  0  0  0  0  0  0
   -0.6087  -46.7329    5.2330 H   0  0  0  0  0  0  0  0  0  0  0  0
   -0.8357  -47.0656    7.7858 H   0  0  0  0  0  0  0  0  0  0  0  0
    0.8455  -46.4423    7.8932 H   0  0  0  0  0  0  0  0  0  0  0  0
   -0.6811  -44.6322    8.3427 H   0  0  0  0  0  0  0  0  0  0  0  0
    0.0787  -44.3517    6.7394 H   0  0  0  0  0  0  0  0  0  0  0  0
   -6.2699  -45.7267    9.5892 H   0  0  0  0  0  0  0  0  0  0  0  0
   -4.0687  -46.4746   10.4593 H   0  0  0  0  0  0  0  0  0  0  0  0
   -2.0296  -46.1897    9.0898 H   0  0  0  0  0  0  0  0  0  0  0  0
   -3.4798  -43.8434    5.1777 H   0  0  0  0  0  0  0  0  0  0  0  0
   -5.6711  -42.9866    4.3786 H   0  0  0  0  0  0  0  0  0  0  0  0
   -7.7316  -43.3978    5.7127 H   0  0  0  0  0  0  0  0  0  0  0  0
   -7.5981  -44.6265    7.8676 H   0  0  0  0  0  0  0  0  0  0  0  0
  1  2  2  0  0  0  0
  2  3  1  0  0  0  0
  2  4  1  0  0  0  0
  4 11  1  0  0  0  0
  4 27  2  0  0  0  0
  5  6  2  0  0  0  0
  5 10  1  0  0  0  0
  5 27  1  0  0  0  0
  6  7  1  0  0  0  0
  7  8  2  0  0  0  0
  8  9  1  0  0  0  0
  9 10  2  0  0  0  0
  9 20  1  0  0  0  0
 10 11  1  0  0  0  0
 11 12  1  0  0  0  0
 12 13  1  0  0  0  0
 13 14  1  0  0  0  0
 14 15  1  0  0  0  0
 15 16  1  0  0  0  0
 16 19  2  0  0  0  0
 16 22  1  0  0  0  0
 17 18  2  0  0  0  0
 17 21  1  0  0  0  0
 18 19  1  0  0  0  0
 21 22  2  0  0  0  0
 21 26  1  0  0  0  0
 22 23  1  0  0  0  0
 23 24  2  0  0  0  0
 24 25  1  0  0  0  0
 25 26  2  0  0  0  0
  3 28  1  0  0  0  0
  6 29  1  0  0  0  0
  7 30  1  0  0  0  0
  8 31  1  0  0  0  0
 11 32  1  0  0  0  0
 12 33  1  0  0  0  0
 12 34  1  0  0  0  0
 13 35  1  0  0  0  0
 13 36  1  0  0  0  0
 14 37  1  0  0  0  0
 14 38  1  0  0  0  0
 17 39  1  0  0  0  0
 18 40  1  0  0  0  0
 19 41  1  0  0  0  0
 23 42  1  0  0  0  0
 24 43  1  0  0  0  0
 25 44  1  0  0  0  0
 26 45  1  0  0  0  0
M  END
> <r_user_dG.exp>
-8.44846494324944

$$$$
51
  -OEChem-05192314073D
 Structure written by MMmdl.
 45 48  0     1  0  0  0  0  0999 V2000
    3.7527  -49.6152    6.8636 O   0  0  0  0  0  0  0  0  0  0  0  0
    2.8848  -48.7317    6.6600 C   0  0  0  0  0  0  0  0  0  0  0  0
    3.1745  -47.5142    6.7244 O   0  0  0  0  0  0  0  0  0  0  0  0
    1.4963  -49.1647    6.3449 C   0  0  3  0  0  0  0  0  0  0  0  0
   -0.1706  -50.7326    6.1724 C   0  0  0  0  0  0  0  0  0  0  0  0
   -0.9638  -51.8980    6.1848 C   0  0  0  0  0  0  0  0  0  0  0  0
   -2.3385  -51.8063    5.8920 C   0  0  0  0  0  0  0  0  0  0  0  0
   -2.8945  -50.5470    5.5892 C   0  0  0  0  0  0  0  0  0  0  0  0
   -2.1048  -49.3755    5.5930 C   0  0  0  0  0  0  0  0  0  0  0  0
   -0.7152  -49.4395    5.8829 C   0  0  0  0  0  0  0  0  0  0  0  0
    0.3471  -48.4704    6.0111 C   0  0  0  0  0  0  0  0  0  0  0  0
    0.2138  -46.9863    5.9181 C   0  0  0  0  0  0  0  0  0  0  0  0
   -0.0845  -46.4209    7.3062 C   0  0  0  0  0  0  0  0  0  0  0  0
   -0.6144  -44.9916    7.3052 C   0  0  0  0  0  0  0  0  0  0  0  0
   -1.9032  -44.9246    6.7062 O   0  0  0  0  0  0  0  0  0  0  0  0
   -3.0236  -45.1515    7.4787 C   0  0  0  0  0  0  0  0  0  0  0  0
   -5.3750  -45.5596    9.0081 C   0  0  0  0  0  0  0  0  0  0  0  0
   -4.1326  -45.9972    9.4926 C   0  0  0  0  0  0  0  0  0  0  0  0
   -2.9744  -45.8157    8.7239 C   0  0  0  0  0  0  0  0  0  0  0  0
   -2.8919  -47.8611    5.2687 Cl  0  0  0  0  0  0  0  0  0  0  0  0
   -5.4558  -44.9041    7.7675 C   0  0  0  0  0  0  0  0  0  0  0  0
   -4.2759  -44.6954    7.0025 C   0  0  0  0  0  0  0  0  0  0  0  0
   -4.3683  -44.0049    5.7701 C   0  0  0  0  0  0  0  0  0  0  0  0
   -5.6111  -43.5273    5.3116 C   0  0  0  0  0  0  0  0  0  0  0  0
   -6.7775  -43.7552    6.0709 C   0  0  0  0  0  0  0  0  0  0  0  0
   -6.7018  -44.4463    7.2927 C   0  0  0  0  0  0  0  0  0  0  0  0
    1.1745  -50.5105    6.4276 N   0  0  0  0  0  0  0  0  0  0  0  0
    4.0952  -47.4182    6.9380 H   0  0  0  0  0  0  0  0  0  0  0  0
    1.7566  -49.2761    5.2820 H   0  0  0  0  0  0  0  0  0  0  0  0
   -0.5203  -52.8549    6.4173 H   0  0  0  0  0  0  0  0  0  0  0  0
   -2.9590  -52.6902    5.8994 H   0  0  0  0  0  0  0  0  0  0  0  0
   -3.9452  -50.4762    5.3495 H   0  0  0  0  0  0  0  0  0  0  0  0
    1.1524  -46.5556    5.5393 H   0  0  0  0  0  0  0  0  0  0  0  0
   -0.6087  -46.7329    5.2330 H   0  0  0  0  0  0  0  0  0  0  0  0
   -0.8357  -47.0656    7.7858 H   0  0  0  0  0  0  0  0  0  0  0  0
    0.8455  -46.4423    7.8932 H   0  0  0  0  0  0  0  0  0  0  0  0
   -0.6811  -44.6322    8.3427 H   0  0  0  0  0  0  0  0  0  0  0  0
    0.0787  -44.3517    6.7394 H   0  0  0  0  0  0  0  0  0  0  0  0
   -6.2699  -45.7267    9.5892 H   0  0  0  0  0  0  0  0  0  0  0  0
   -4.0687  -46.4746   10.4593 H   0  0  0  0  0  0  0  0  0  0  0  0
   -2.0296  -46.1897    9.0898 H   0  0  0  0  0  0  0  0  0  0  0  0
   -3.4798  -43.8434    5.1777 H   0  0  0  0  0  0  0  0  0  0  0  0
   -5.6711  -42.9866    4.3786 H   0  0  0  0  0  0  0  0  0  0  0  0
   -7.7316  -43.3978    5.7127 H   0  0  0  0  0  0  0  0  0  0  0  0
   -7.5981  -44.6265    7.8676 H   0  0  0  0  0  0  0  0  0  0  0  0
  1  2  2  0  0  0  0
  2  3  1  0  0  0  0
  2  4  1  0  0  0  0
  4 11  1  0  0  0  0
  4 27  1  0  0  0  0
  5  6  1  0  0  0  0
  5 10  1  0  0  0  0
  5 27  2  0  0  0  0
  6  7  2  0  0  0  0
  7  8  1  0  0  0  0
  8  9  2  0  0  0  0
  9 10  1  0  0  0  0
  9 20  1  0  0  0  0
 10 11  2  0  0  0  0
 11 12  1  0  0  0  0
 12 13  1  0  0  0  0
 13 14  1  0  0  0  0
 14 15  1  0  0  0  0
 15 16  1  0  0  0  0
 16 19  2  0  0  0  0
 16 22  1  0  0  0  0
 17 18  2  0  0  0  0
 17 21  1  0  0  0  0
 18 19  1  0  0  0  0
 21 22  2  0  0  0  0
 21 26  1  0  0  0  0
 22 23  1  0  0  0  0
 23 24  2  0  0  0  0
 24 25  1  0  0  0  0
 25 26  2  0  0  0  0
  3 28  1  0  0  0  0
  4 29  1  0  0  0  0
  6 30  1  0  0  0  0
  7 31  1  0  0  0  0
  8 32  1  0  0  0  0
 12 33  1  0  0  0  0
 12 34  1  0  0  0  0
 13 35  1  0  0  0  0
 13 36  1  0  0  0  0
 14 37  1  0  0  0  0
 14 38  1  0  0  0  0
 17 39  1  0  0  0  0
 18 40  1  0  0  0  0
 19 41  1  0  0  0  0
 23 42  1  0  0  0  0
 24 43  1  0  0  0  0
 25 44  1  0  0  0  0
 26 45  1  0  0  0  0
M  END
> <r_user_dG.exp>
-8.44846494324944

$$$$
51
  -OEChem-05192314073D
 Structure written by MMmdl.
 45 48  0     1  0  0  0  0  0999 V2000
    3.7527  -49.6152    6.8636 O   0  0  0  0  0  0  0  0  0  0  0  0
    2.8848  -48.7317    6.6600 C   0  0  0  0  0  0  0  0  0  0  0  0
    3.1745  -47.5142    6.7244 O   0  0  0  0  0  0  0  0  0  0  0  0
    1.4963  -49.1647    6.3449 C   0  0  0  0  0  0  0  0  0  0  0  0
   -0.1706  -50.7326    6.1724 C   0  0  0  0  0  0  0  0  0  0  0  0
   -0.9638  -51.8980    6.1848 C   0  0  0  0  0  0  0  0  0  0  0  0
   -2.3385  -51.8063    5.8920 C   0  0  0  0  0  0  0  0  0  0  0  0
   -2.8945  -50.5470    5.5892 C   0  0  0  0  0  0  0  0  0  0  0  0
   -2.1048  -49.3755    5.5930 C   0  0  3  0  0  0  0  0  0  0  0  0
   -0.7152  -49.4395    5.8829 C   0  0  0  0  0  0  0  0  0  0  0  0
    0.3471  -48.4704    6.0111 C   0  0  0  0  0  0  0  0  0  0  0  0
    0.2138  -46.9863    5.9181 C   0  0  0  0  0  0  0  0  0  0  0  0
   -0.0845  -46.4209    7.3062 C   0  0  0  0  0  0  0  0  0  0  0  0
   -0.6144  -44.9916    7.3052 C   0  0  0  0  0  0  0  0  0  0  0  0
   -1.9032  -44.9246    6.7062 O   0  0  0  0  0  0  0  0  0  0  0  0
   -3.0236  -45.1515    7.4787 C   0  0  0  0  0  0  0  0  0  0  0  0
   -5.3750  -45.5596    9.0081 C   0  0  0  0  0  0  0  0  0  0  0  0
   -4.1326  -45.9972    9.4926 C   0  0  0  0  0  0  0  0  0  0  0  0
   -2.9744  -45.8157    8.7239 C   0  0  0  0  0  0  0  0  0  0  0  0
   -2.8919  -47.8611    5.2687 Cl  0  0  0  0  0  0  0  0  0  0  0  0
   -5.4558  -44.9041    7.7675 C   0  0  0  0  0  0  0  0  0  0  0  0
   -4.2759  -44.6954    7.0025 C   0  0  0  0  0  0  0  0  0  0  0  0
   -4.3683  -44.0049    5.7701 C   0  0  0  0  0  0  0  0  0  0  0  0
   -5.6111  -43.5273    5.3116 C   0  0  0  0  0  0  0  0  0  0  0  0
   -6.7775  -43.7552    6.0709 C   0  0  0  0  0  0  0  0  0  0  0  0
   -6.7018  -44.4463    7.2927 C   0  0  0  0  0  0  0  0  0  0  0  0
    1.1745  -50.5105    6.4276 N   0  0  0  0  0  0  0  0  0  0  0  0
    4.0952  -47.4182    6.9380 H   0  0  0  0  0  0  0  0  0  0  0  0
   -0.5203  -52.8549    6.4173 H   0  0  0  0  0  0  0  0  0  0  0  0
   -2.9590  -52.6902    5.8994 H   0  0  0  0  0  0  0  0  0  0  0  0
   -3.9452  -50.4762    5.3495 H   0  0  0  0  0  0  0  0  0  0  0  0
   -1.8952  -49.5036    4.5208 H   0  0  0  0  0  0  0  0  0  0  0  0
    1.1524  -46.5556    5.5393 H   0  0  0  0  0  0  0  0  0  0  0  0
   -0.6087  -46.7329    5.2330 H   0  0  0  0  0  0  0  0  0  0  0  0
   -0.8357  -47.0656    7.7858 H   0  0  0  0  0  0  0  0  0  0  0  0
    0.8455  -46.4423    7.8932 H   0  0  0  0  0  0  0  0  0  0  0  0
   -0.6811  -44.6322    8.3427 H   0  0  0  0  0  0  0  0  0  0  0  0
    0.0787  -44.3517    6.7394 H   0  0  0  0  0  0  0  0  0  0  0  0
   -6.2699  -45.7267    9.5892 H   0  0  0  0  0  0  0  0  0  0  0  0
   -4.0687  -46.4746   10.4593 H   0  0  0  0  0  0  0  0  0  0  0  0
   -2.0296  -46.1897    9.0898 H   0  0  0  0  0  0  0  0  0  0  0  0
   -3.4798  -43.8434    5.1777 H   0  0  0  0  0  0  0  0  0  0  0  0
   -5.6711  -42.9866    4.3786 H   0  0  0  0  0  0  0  0  0  0  0  0
   -7.7316  -43.3978    5.7127 H   0  0  0  0  0  0  0  0  0  0  0  0
   -7.5981  -44.6265    7.8676 H   0  0  0  0  0  0  0  0  0  0  0  0
  1  2  2  0  0  0  0
  2  3  1  0  0  0  0
  2  4  1  0  0  0  0
  4 11  1  0  0  0  0
  4 27  2  0  0  0  0
  5  6  2  0  0  0  0
  5 10  1  0  0  0  0
  5 27  1  0  0  0  0
  6  7  1  0  0  0  0
  7  8  2  0  0  0  0
  8  9  1  0  0  0  0
  9 10  1  0  0  0  0
  9 20  1  0  0  0  0
 10 11  2  0  0  0  0
 11 12  1  0  0  0  0
 12 13  1  0  0  0  0
 13 14  1  0  0  0  0
 14 15  1  0  0  0  0
 15 16  1  0  0  0  0
 16 19  2  0  0  0  0
 16 22  1  0  0  0  0
 17 18  2  0  0  0  0
 17 21  1  0  0  0  0
 18 19  1  0  0  0  0
 21 22  2  0  0  0  0
 21 26  1  0  0  0  0
 22 23  1  0  0  0  0
 23 24  2  0  0  0  0
 24 25  1  0  0  0  0
 25 26  2  0  0  0  0
  3 28  1  0  0  0  0
  6 29  1  0  0  0  0
  7 30  1  0  0  0  0
  8 31  1  0  0  0  0
  9 32  1  0  0  0  0
 12 33  1  0  0  0  0
 12 34  1  0  0  0  0
 13 35  1  0  0  0  0
 13 36  1  0  0  0  0
 14 37  1  0  0  0  0
 14 38  1  0  0  0  0
 17 39  1  0  0  0  0
 18 40  1  0  0  0  0
 19 41  1  0  0  0  0
 23 42  1  0  0  0  0
 24 43  1  0  0  0  0
 25 44  1  0  0  0  0
 26 45  1  0  0  0  0
M  END
> <r_user_dG.exp>
-8.44846494324944

$$$$
51
  -OEChem-05192314073D
 Structure written by MMmdl.
 45 48  0     1  0  0  0  0  0999 V2000
    3.7527  -49.6152    6.8636 O   0  0  0  0  0  0  0  0  0  0  0  0
    2.8848  -48.7317    6.6600 C   0  0  0  0  0  0  0  0  0  0  0  0
    3.1745  -47.5142    6.7244 O   0  0  0  0  0  0  0  0  0  0  0  0
    1.4963  -49.1647    6.3449 C   0  0  0  0  0  0  0  0  0  0  0  0
   -0.1706  -50.7326    6.1724 C   0  0  0  0  0  0  0  0  0  0  0  0
   -0.9638  -51.8980    6.1848 C   0  0  0  0  0  0  0  0  0  0  0  0
   -2.3385  -51.8063    5.8920 C   0  0  0  0  0  0  0  0  0  0  0  0
   -2.8945  -50.5470    5.5892 C   0  0  0  0  0  0  0  0  0  0  0  0
   -2.1048  -49.3755    5.5930 C   0  0  0  0  0  0  0  0  0  0  0  0
   -0.7152  -49.4395    5.8829 C   0  0  3  0  0  0  0  0  0  0  0  0
    0.3471  -48.4704    6.0111 C   0  0  0  0  0  0  0  0  0  0  0  0
    0.2138  -46.9863    5.9181 C   0  0  0  0  0  0  0  0  0  0  0  0
   -0.0845  -46.4209    7.3062 C   0  0  0  0  0  0  0  0  0  0  0  0
   -0.6144  -44.9916    7.3052 C   0  0  0  0  0  0  0  0  0  0  0  0
   -1.9032  -44.9246    6.7062 O   0  0  0  0  0  0  0  0  0  0  0  0
   -3.0236  -45.1515    7.4787 C   0  0  0  0  0  0  0  0  0  0  0  0
   -5.3750  -45.5596    9.0081 C   0  0  0  0  0  0  0  0  0  0  0  0
   -4.1326  -45.9972    9.4926 C   0  0  0  0  0  0  0  0  0  0  0  0
   -2.9744  -45.8157    8.7239 C   0  0  0  0  0  0  0  0  0  0  0  0
   -2.8919  -47.8611    5.2687 Cl  0  0  0  0  0  0  0  0  0  0  0  0
   -5.4558  -44.9041    7.7675 C   0  0  0  0  0  0  0  0  0  0  0  0
   -4.2759  -44.6954    7.0025 C   0  0  0  0  0  0  0  0  0  0  0  0
   -4.3683  -44.0049    5.7701 C   0  0  0  0  0  0  0  0  0  0  0  0
   -5.6111  -43.5273    5.3116 C   0  0  0  0  0  0  0  0  0  0  0  0
   -6.7775  -43.7552    6.0709 C   0  0  0  0  0  0  0  0  0  0  0  0
   -6.7018  -44.4463    7.2927 C   0  0  0  0  0  0  0  0  0  0  0  0
    1.1745  -50.5105    6.4276 N   0  0  0  0  0  0  0  0  0  0  0  0
    4.0952  -47.4182    6.9380 H   0  0  0  0  0  0  0  0  0  0  0  0
   -0.5203  -52.8549    6.4173 H   0  0  0  0  0  0  0  0  0  0  0  0
   -2.9590  -52.6902    5.8994 H   0  0  0  0  0  0  0  0  0  0  0  0
   -3.9452  -50.4762    5.3495 H   0  0  0  0  0  0  0  0  0  0  0  0
   -0.4856  -49.5682    4.8149 H   0  0  0  0  0  0  0  0  0  0  0  0
    1.1524  -46.5556    5.5393 H   0  0  0  0  0  0  0  0  0  0  0  0
   -0.6087  -46.7329    5.2330 H   0  0  0  0  0  0  0  0  0  0  0  0
   -0.8357  -47.0656    7.7858 H   0  0  0  0  0  0  0  0  0  0  0  0
    0.8455  -46.4423    7.8932 H   0  0  0  0  0  0  0  0  0  0  0  0
   -0.6811  -44.6322    8.3427 H   0  0  0  0  0  0  0  0  0  0  0  0
    0.0787  -44.3517    6.7394 H   0  0  0  0  0  0  0  0  0  0  0  0
   -6.2699  -45.7267    9.5892 H   0  0  0  0  0  0  0  0  0  0  0  0
   -4.0687  -46.4746   10.4593 H   0  0  0  0  0  0  0  0  0  0  0  0
   -2.0296  -46.1897    9.0898 H   0  0  0  0  0  0  0  0  0  0  0  0
   -3.4798  -43.8434    5.1777 H   0  0  0  0  0  0  0  0  0  0  0  0
   -5.6711  -42.9866    4.3786 H   0  0  0  0  0  0  0  0  0  0  0  0
   -7.7316  -43.3978    5.7127 H   0  0  0  0  0  0  0  0  0  0  0  0
   -7.5981  -44.6265    7.8676 H   0  0  0  0  0  0  0  0  0  0  0  0
  1  2  2  0  0  0  0
  2  3  1  0  0  0  0
  2  4  1  0  0  0  0
  4 11  2  0  0  0  0
  4 27  1  0  0  0  0
  5  6  1  0  0  0  0
  5 10  1  0  0  0  0
  5 27  2  0  0  0  0
  6  7  2  0  0  0  0
  7  8  1  0  0  0  0
  8  9  2  0  0  0  0
  9 10  1  0  0  0  0
  9 20  1  0  0  0  0
 10 11  1  0  0  0  0
 11 12  1  0  0  0  0
 12 13  1  0  0  0  0
 13 14  1  0  0  0  0
 14 15  1  0  0  0  0
 15 16  1  0  0  0  0
 16 19  2  0  0  0  0
 16 22  1  0  0  0  0
 17 18  2  0  0  0  0
 17 21  1  0  0  0  0
 18 19  1  0  0  0  0
 21 22  2  0  0  0  0
 21 26  1  0  0  0  0
 22 23  1  0  0  0  0
 23 24  2  0  0  0  0
 24 25  1  0  0  0  0
 25 26  2  0  0  0  0
  3 28  1  0  0  0  0
  6 29  1  0  0  0  0
  7 30  1  0  0  0  0
  8 31  1  0  0  0  0
 10 32  1  0  0  0  0
 12 33  1  0  0  0  0
 12 34  1  0  0  0  0
 13 35  1  0  0  0  0
 13 36  1  0  0  0  0
 14 37  1  0  0  0  0
 14 38  1  0  0  0  0
 17 39  1  0  0  0  0
 18 40  1  0  0  0  0
 19 41  1  0  0  0  0
 23 42  1  0  0  0  0
 24 43  1  0  0  0  0
 25 44  1  0  0  0  0
 26 45  1  0  0  0  0
M  END
> <r_user_dG.exp>
-8.44846494324944

$$$$
51
  -OEChem-05192314073D
 Structure written by MMmdl.
 45 48  0     1  0  0  0  0  0999 V2000
    3.7527  -49.6152    6.8636 O   0  0  0  0  0  0  0  0  0  0  0  0
    2.8848  -48.7317    6.6600 C   0  0  0  0  0  0  0  0  0  0  0  0
    3.1745  -47.5142    6.7244 O   0  0  0  0  0  0  0  0  0  0  0  0
    1.4963  -49.1647    6.3449 C   0  0  0  0  0  0  0  0  0  0  0  0
   -0.1706  -50.7326    6.1724 C   0  0  3  0  0  0  0  0  0  0  0  0
   -0.9638  -51.8980    6.1848 C   0  0  0  0  0  0  0  0  0  0  0  0
   -2.3385  -51.8063    5.8920 C   0  0  0  0  0  0  0  0  0  0  0  0
   -2.8945  -50.5470    5.5892 C   0  0  0  0  0  0  0  0  0  0  0  0
   -2.1048  -49.3755    5.5930 C   0  0  0  0  0  0  0  0  0  0  0  0
   -0.7152  -49.4395    5.8829 C   0  0  0  0  0  0  0  0  0  0  0  0
    0.3471  -48.4704    6.0111 C   0  0  0  0  0  0  0  0  0  0  0  0
    0.2138  -46.9863    5.9181 C   0  0  0  0  0  0  0  0  0  0  0  0
   -0.0845  -46.4209    7.3062 C   0  0  0  0  0  0  0  0  0  0  0  0
   -0.6144  -44.9916    7.3052 C   0  0  0  0  0  0  0  0  0  0  0  0
   -1.9032  -44.9246    6.7062 O   0  0  0  0  0  0  0  0  0  0  0  0
   -3.0236  -45.1515    7.4787 C   0  0  0  0  0  0  0  0  0  0  0  0
   -5.3750  -45.5596    9.0081 C   0  0  0  0  0  0  0  0  0  0  0  0
   -4.1326  -45.9972    9.4926 C   0  0  0  0  0  0  0  0  0  0  0  0
   -2.9744  -45.8157    8.7239 C   0  0  0  0  0  0  0  0  0  0  0  0
   -2.8919  -47.8611    5.2687 Cl  0  0  0  0  0  0  0  0  0  0  0  0
   -5.4558  -44.9041    7.7675 C   0  0  0  0  0  0  0  0  0  0  0  0
   -4.2759  -44.6954    7.0025 C   0  0  0  0  0  0  0  0  0  0  0  0
   -4.3683  -44.0049    5.7701 C   0  0  0  0  0  0  0  0  0  0  0  0
   -5.6111  -43.5273    5.3116 C   0  0  0  0  0  0  0  0  0  0  0  0
   -6.7775  -43.7552    6.0709 C   0  0  0  0  0  0  0  0  0  0  0  0
   -6.7018  -44.4463    7.2927 C   0  0  0  0  0  0  0  0  0  0  0  0
    1.1745  -50.5105    6.4276 N   0  0  0  0  0  0  0  0  0  0  0  0
    4.0952  -47.4182    6.9380 H   0  0  0  0  0  0  0  0  0  0  0  0
    0.0500  -50.8859    5.1057 H   0  0  0  0  0  0  0  0  0  0  0  0
   -0.5203  -52.8549    6.4173 H   0  0  0  0  0  0  0  0  0  0  0  0
   -2.9590  -52.6902    5.8994 H   0  0  0  0  0  0  0  0  0  0  0  0
   -3.9452  -50.4762    5.3495 H   0  0  0  0  0  0  0  0  0  0  0  0
    1.1524  -46.5556    5.5393 H   0  0  0  0  0  0  0  0  0  0  0  0
   -0.6087  -46.7329    5.2330 H   0  0  0  0  0  0  0  0  0  0  0  0
   -0.8357  -47.0656    7.7858 H   0  0  0  0  0  0  0  0  0  0  0  0
    0.8455  -46.4423    7.8932 H   0  0  0  0  0  0  0  0  0  0  0  0
   -0.6811  -44.6322    8.3427 H   0  0  0  0  0  0  0  0  0  0  0  0
    0.0787  -44.3517    6.7394 H   0  0  0  0  0  0  0  0  0  0  0  0
   -6.2699  -45.7267    9.5892 H   0  0  0  0  0  0  0  0  0  0  0  0
   -4.0687  -46.4746   10.4593 H   0  0  0  0  0  0  0  0  0  0  0  0
   -2.0296  -46.1897    9.0898 H   0  0  0  0  0  0  0  0  0  0  0  0
   -3.4798  -43.8434    5.1777 H   0  0  0  0  0  0  0  0  0  0  0  0
   -5.6711  -42.9866    4.3786 H   0  0  0  0  0  0  0  0  0  0  0  0
   -7.7316  -43.3978    5.7127 H   0  0  0  0  0  0  0  0  0  0  0  0
   -7.5981  -44.6265    7.8676 H   0  0  0  0  0  0  0  0  0  0  0  0
  1  2  2  0  0  0  0
  2  3  1  0  0  0  0
  2  4  1  0  0  0  0
  4 11  1  0  0  0  0
  4 27  2  0  0  0  0
  5  6  1  0  0  0  0
  5 10  1  0  0  0  0
  5 27  1  0  0  0  0
  6  7  2  0  0  0  0
  7  8  1  0  0  0  0
  8  9  2  0  0  0  0
  9 10  1  0  0  0  0
  9 20  1  0  0  0  0
 10 11  2  0  0  0  0
 11 12  1  0  0  0  0
 12 13  1  0  0  0  0
 13 14  1  0  0  0  0
 14 15  1  0  0  0  0
 15 16  1  0  0  0  0
 16 19  2  0  0  0  0
 16 22  1  0  0  0  0
 17 18  2  0  0  0  0
 17 21  1  0  0  0  0
 18 19  1  0  0  0  0
 21 22  2  0  0  0  0
 21 26  1  0  0  0  0
 22 23  1  0  0  0  0
 23 24  2  0  0  0  0
 24 25  1  0  0  0  0
 25 26  2  0  0  0  0
  3 28  1  0  0  0  0
  5 29  1  0  0  0  0
  6 30  1  0  0  0  0
  7 31  1  0  0  0  0
  8 32  1  0  0  0  0
 12 33  1  0  0  0  0
 12 34  1  0  0  0  0
 13 35  1  0  0  0  0
 13 36  1  0  0  0  0
 14 37  1  0  0  0  0
 14 38  1  0  0  0  0
 17 39  1  0  0  0  0
 18 40  1  0  0  0  0
 19 41  1  0  0  0  0
 23 42  1  0  0  0  0
 24 43  1  0  0  0  0
 25 44  1  0  0  0  0
 26 45  1  0  0  0  0
M  END
> <r_user_dG.exp>
-8.44846494324944

$$$$
51
  -OEChem-05192314073D
 Structure written by MMmdl.
 45 48  0     0  0  0  0  0  0999 V2000
    3.7527  -49.6152    6.8636 O   0  0  0  0  0  0  0  0  0  0  0  0
    2.8848  -48.7317    6.6600 C   0  0  0  0  0  0  0  0  0  0  0  0
    3.1745  -47.5142    6.7244 O   0  0  0  0  0  0  0  0  0  0  0  0
    1.4963  -49.1647    6.3449 C   0  0  0  0  0  0  0  0  0  0  0  0
   -0.1706  -50.7326    6.1724 C   0  0  0  0  0  0  0  0  0  0  0  0
   -0.9638  -51.8980    6.1848 C   0  0  0  0  0  0  0  0  0  0  0  0
   -2.3385  -51.8063    5.8920 C   0  0  0  0  0  0  0  0  0  0  0  0
   -2.8945  -50.5470    5.5892 C   0  0  0  0  0  0  0  0  0  0  0  0
   -2.1048  -49.3755    5.5930 C   0  0  0  0  0  0  0  0  0  0  0  0
   -0.7152  -49.4395    5.8829 C   0  0  0  0  0  0  0  0  0  0  0  0
    0.3471  -48.4704    6.0111 C   0  0  0  0  0  0  0  0  0  0  0  0
    0.2138  -46.9863    5.9181 C   0  0  0  0  0  0  0  0  0  0  0  0
   -0.0845  -46.4209    7.3062 C   0  0  0  0  0  0  0  0  0  0  0  0
   -0.6144  -44.9916    7.3052 C   0  0  0  0  0  0  0  0  0  0  0  0
   -1.9032  -44.9246    6.7062 O   0  0  0  0  0  0  0  0  0  0  0  0
   -3.0236  -45.1515    7.4787 C   0  0  0  0  0  0  0  0  0  0  0  0
   -5.3750  -45.5596    9.0081 C   0  0  0  0  0  0  0  0  0  0  0  0
   -4.1326  -45.9972    9.4926 C   0  0  0  0  0  0  0  0  0  0  0  0
   -2.9744  -45.8157    8.7239 C   0  0  0  0  0  0  0  0  0  0  0  0
   -2.8919  -47.8611    5.2687 Cl  0  0  0  0  0  0  0  0  0  0  0  0
   -5.4558  -44.9041    7.7675 C   0  0  0  0  0  0  0  0  0  0  0  0
   -4.2759  -44.6954    7.0025 C   0  0  0  0  0  0  0  0  0  0  0  0
   -4.3683  -44.0049    5.7701 C   0  0  0  0  0  0  0  0  0  0  0  0
   -5.6111  -43.5273    5.3116 C   0  0  0  0  0  0  0  0  0  0  0  0
   -6.7775  -43.7552    6.0709 C   0  0  0  0  0  0  0  0  0  0  0  0
   -6.7018  -44.4463    7.2927 C   0  0  0  0  0  0  0  0  0  0  0  0
    1.1745  -50.5105    6.4276 N   0  0  0  0  0  0  0  0  0  0  0  0
    4.0952  -47.4182    6.9380 H   0  0  0  0  0  0  0  0  0  0  0  0
   -0.5203  -52.8549    6.4173 H   0  0  0  0  0  0  0  0  0  0  0  0
   -2.5267  -52.4574    5.0256 H   0  0  0  0  0  0  0  0  0  0  0  0
   -2.8801  -52.1947    6.7671 H   0  0  0  0  0  0  0  0  0  0  0  0
   -3.9452  -50.4762    5.3495 H   0  0  0  0  0  0  0  0  0  0  0  0
    1.1524  -46.5556    5.5393 H   0  0  0  0  0  0  0  0  0  0  0  0
   -0.6087  -46.7329    5.2330 H   0  0  0  0  0  0  0  0  0  0  0  0
   -0.8357  -47.0656    7.7858 H   0  0  0  0  0  0  0  0  0  0  0  0
    0.8455  -46.4423    7.8932 H   0  0  0  0  0  0  0  0  0  0  0  0
   -0.6811  -44.6322    8.3427 H   0  0  0  0  0  0  0  0  0  0  0  0
    0.0787  -44.3517    6.7394 H   0  0  0  0  0  0  0  0  0  0  0  0
   -6.2699  -45.7267    9.5892 H   0  0  0  0  0  0  0  0  0  0  0  0
   -4.0687  -46.4746   10.4593 H   0  0  0  0  0  0  0  0  0  0  0  0
   -2.0296  -46.1897    9.0898 H   0  0  0  0  0  0  0  0  0  0  0  0
   -3.4798  -43.8434    5.1777 H   0  0  0  0  0  0  0  0  0  0  0  0
   -5.6711  -42.9866    4.3786 H   0  0  0  0  0  0  0  0  0  0  0  0
   -7.7316  -43.3978    5.7127 H   0  0  0  0  0  0  0  0  0  0  0  0
   -7.5981  -44.6265    7.8676 H   0  0  0  0  0  0  0  0  0  0  0  0
  1  2  2  0  0  0  0
  2  3  1  0  0  0  0
  2  4  1  0  0  0  0
  4 11  1  0  0  0  0
  4 27  2  0  0  0  0
  5  6  2  0  0  0  0
  5 10  1  0  0  0  0
  5 27  1  0  0  0  0
  6  7  1  0  0  0  0
  7  8  1  0  0  0  0
  8  9  2  0  0  0  0
  9 10  1  0  0  0  0
  9 20  1  0  0  0  0
 10 11  2  0  0  0  0
 11 12  1  0  0  0  0
 12 13  1  0  0  0  0
 13 14  1  0  0  0  0
 14 15  1  0  0  0  0
 15 16  1  0  0  0  0
 16 19  2  0  0  0  0
 16 22  1  0  0  0  0
 17 18  2  0  0  0  0
 17 21  1  0  0  0  0
 18 19  1  0  0  0  0
 21 22  2  0  0  0  0
 21 26  1  0  0  0  0
 22 23  1  0  0  0  0
 23 24  2  0  0  0  0
 24 25  1  0  0  0  0
 25 26  2  0  0  0  0
  3 28  1  0  0  0  0
  6 29  1  0  0  0  0
  7 30  1  0  0  0  0
  7 31  1  0  0  0  0
  8 32  1  0  0  0  0
 12 33  1  0  0  0  0
 12 34  1  0  0  0  0
 13 35  1  0  0  0  0
 13 36  1  0  0  0  0
 14 37  1  0  0  0  0
 14 38  1  0  0  0  0
 17 39  1  0  0  0  0
 18 40  1  0  0  0  0
 19 41  1  0  0  0  0
 23 42  1  0  0  0  0
 24 43  1  0  0  0  0
 25 44  1  0  0  0  0
 26 45  1  0  0  0  0
M  END
> <r_user_dG.exp>
-8.44846494324944

$$$$
51
  -OEChem-05192314073D
 Structure written by MMmdl.
 45 48  0     0  0  0  0  0  0999 V2000
    3.7527  -49.6152    6.8636 O   0  0  0  0  0  0  0  0  0  0  0  0
    2.8848  -48.7317    6.6600 C   0  0  0  0  0  0  0  0  0  0  0  0
    3.1745  -47.5142    6.7244 O   0  0  0  0  0  0  0  0  0  0  0  0
    1.4963  -49.1647    6.3449 C   0  0  0  0  0  0  0  0  0  0  0  0
   -0.1706  -50.7326    6.1724 C   0  0  0  0  0  0  0  0  0  0  0  0
   -0.9638  -51.8980    6.1848 C   0  0  0  0  0  0  0  0  0  0  0  0
   -2.3385  -51.8063    5.8920 C   0  0  0  0  0  0  0  0  0  0  0  0
   -2.8945  -50.5470    5.5892 C   0  0  0  0  0  0  0  0  0  0  0  0
   -2.1048  -49.3755    5.5930 C   0  0  0  0  0  0  0  0  0  0  0  0
   -0.7152  -49.4395    5.8829 C   0  0  0  0  0  0  0  0  0  0  0  0
    0.3471  -48.4704    6.0111 C   0  0  0  0  0  0  0  0  0  0  0  0
    0.2138  -46.9863    5.9181 C   0  0  0  0  0  0  0  0  0  0  0  0
   -0.0845  -46.4209    7.3062 C   0  0  0  0  0  0  0  0  0  0  0  0
   -0.6144  -44.9916    7.3052 C   0  0  0  0  0  0  0  0  0  0  0  0
   -1.9032  -44.9246    6.7062 O   0  0  0  0  0  0  0  0  0  0  0  0
   -3.0236  -45.1515    7.4787 C   0  0  0  0  0  0  0  0  0  0  0  0
   -5.3750  -45.5596    9.0081 C   0  0  0  0  0  0  0  0  0  0  0  0
   -4.1326  -45.9972    9.4926 C   0  0  0  0  0  0  0  0  0  0  0  0
   -2.9744  -45.8157    8.7239 C   0  0  0  0  0  0  0  0  0  0  0  0
   -2.8919  -47.8611    5.2687 Cl  0  0  0  0  0  0  0  0  0  0  0  0
   -5.4558  -44.9041    7.7675 C   0  0  0  0  0  0  0  0  0  0  0  0
   -4.2759  -44.6954    7.0025 C   0  0  0  0  0  0  0  0  0  0  0  0
   -4.3683  -44.0049    5.7701 C   0  0  0  0  0  0  0  0  0  0  0  0
   -5.6111  -43.5273    5.3116 C   0  0  0  0  0  0  0  0  0  0  0  0
   -6.7775  -43.7552    6.0709 C   0  0  0  0  0  0  0  0  0  0  0  0
   -6.7018  -44.4463    7.2927 C   0  0  0  0  0  0  0  0  0  0  0  0
    1.1745  -50.5105    6.4276 N   0  0  0  0  0  0  0  0  0  0  0  0
    4.0952  -47.4182    6.9380 H   0  0  0  0  0  0  0  0  0  0  0  0
   -0.5261  -52.5903    5.4506 H   0  0  0  0  0  0  0  0  0  0  0  0
   -0.8798  -52.3310    7.1925 H   0  0  0  0  0  0  0  0  0  0  0  0
   -2.9590  -52.6902    5.8994 H   0  0  0  0  0  0  0  0  0  0  0  0
   -3.9452  -50.4762    5.3495 H   0  0  0  0  0  0  0  0  0  0  0  0
    1.1524  -46.5556    5.5393 H   0  0  0  0  0  0  0  0  0  0  0  0
   -0.6087  -46.7329    5.2330 H   0  0  0  0  0  0  0  0  0  0  0  0
   -0.8357  -47.0656    7.7858 H   0  0  0  0  0  0  0  0  0  0  0  0
    0.8455  -46.4423    7.8932 H   0  0  0  0  0  0  0  0  0  0  0  0
   -0.6811  -44.6322    8.3427 H   0  0  0  0  0  0  0  0  0  0  0  0
    0.0787  -44.3517    6.7394 H   0  0  0  0  0  0  0  0  0  0  0  0
   -6.2699  -45.7267    9.5892 H   0  0  0  0  0  0  0  0  0  0  0  0
   -4.0687  -46.4746   10.4593 H   0  0  0  0  0  0  0  0  0  0  0  0
   -2.0296  -46.1897    9.0898 H   0  0  0  0  0  0  0  0  0  0  0  0
   -3.4798  -43.8434    5.1777 H   0  0  0  0  0  0  0  0  0  0  0  0
   -5.6711  -42.9866    4.3786 H   0  0  0  0  0  0  0  0  0  0  0  0
   -7.7316  -43.3978    5.7127 H   0  0  0  0  0  0  0  0  0  0  0  0
   -7.5981  -44.6265    7.8676 H   0  0  0  0  0  0  0  0  0  0  0  0
  1  2  2  0  0  0  0
  2  3  1  0  0  0  0
  2  4  1  0  0  0  0
  4 11  2  0  0  0  0
  4 27  1  0  0  0  0
  5  6  1  0  0  0  0
  5 10  1  0  0  0  0
  5 27  2  0  0  0  0
  6  7  1  0  0  0  0
  7  8  2  0  0  0  0
  8  9  1  0  0  0  0
  9 10  2  0  0  0  0
  9 20  1  0  0  0  0
 10 11  1  0  0  0  0
 11 12  1  0  0  0  0
 12 13  1  0  0  0  0
 13 14  1  0  0  0  0
 14 15  1  0  0  0  0
 15 16  1  0  0  0  0
 16 19  2  0  0  0  0
 16 22  1  0  0  0  0
 17 18  2  0  0  0  0
 17 21  1  0  0  0  0
 18 19  1  0  0  0  0
 21 22  2  0  0  0  0
 21 26  1  0  0  0  0
 22 23  1  0  0  0  0
 23 24  2  0  0  0  0
 24 25  1  0  0  0  0
 25 26  2  0  0  0  0
  3 28  1  0  0  0  0
  6 29  1  0  0  0  0
  6 30  1  0  0  0  0
  7 31  1  0  0  0  0
  8 32  1  0  0  0  0
 12 33  1  0  0  0  0
 12 34  1  0  0  0  0
 13 35  1  0  0  0  0
 13 36  1  0  0  0  0
 14 37  1  0  0  0  0
 14 38  1  0  0  0  0
 17 39  1  0  0  0  0
 18 40  1  0  0  0  0
 19 41  1  0  0  0  0
 23 42  1  0  0  0  0
 24 43  1  0  0  0  0
 25 44  1  0  0  0  0
 26 45  1  0  0  0  0
M  END
> <r_user_dG.exp>
-8.44846494324944

$$$$
51
  -OEChem-05192314073D
 Structure written by MMmdl.
 45 48  0     0  0  0  0  0  0999 V2000
    3.7527  -49.6152    6.8636 O   0  0  0  0  0  0  0  0  0  0  0  0
    2.8848  -48.7317    6.6600 C   0  0  0  0  0  0  0  0  0  0  0  0
    3.1745  -47.5142    6.7244 O   0  0  0  0  0  0  0  0  0  0  0  0
    1.4963  -49.1647    6.3449 C   0  0  0  0  0  0  0  0  0  0  0  0
   -0.1706  -50.7326    6.1724 C   0  0  0  0  0  0  0  0  0  0  0  0
   -0.9638  -51.8980    6.1848 C   0  0  0  0  0  0  0  0  0  0  0  0
   -2.3385  -51.8063    5.8920 C   0  0  0  0  0  0  0  0  0  0  0  0
   -2.8945  -50.5470    5.5892 C   0  0  0  0  0  0  0  0  0  0  0  0
   -2.1048  -49.3755    5.5930 C   0  0  0  0  0  0  0  0  0  0  0  0
   -0.7152  -49.4395    5.8829 C   0  0  0  0  0  0  0  0  0  0  0  0
    0.3471  -48.4704    6.0111 C   0  0  0  0  0  0  0  0  0  0  0  0
    0.2138  -46.9863    5.9181 C   0  0  0  0  0  0  0  0  0  0  0  0
   -0.0845  -46.4209    7.3062 C   0  0  0  0  0  0  0  0  0  0  0  0
   -0.6144  -44.9916    7.3052 C   0  0  0  0  0  0  0  0  0  0  0  0
   -1.9032  -44.9246    6.7062 O   0  0  0  0  0  0  0  0  0  0  0  0
   -3.0236  -45.1515    7.4787 C   0  0  0  0  0  0  0  0  0  0  0  0
   -5.3750  -45.5596    9.0081 C   0  0  0  0  0  0  0  0  0  0  0  0
   -4.1326  -45.9972    9.4926 C   0  0  0  0  0  0  0  0  0  0  0  0
   -2.9744  -45.8157    8.7239 C   0  0  0  0  0  0  0  0  0  0  0  0
   -2.8919  -47.8611    5.2687 Cl  0  0  0  0  0  0  0  0  0  0  0  0
   -5.4558  -44.9041    7.7675 C   0  0  0  0  0  0  0  0  0  0  0  0
   -4.2759  -44.6954    7.0025 C   0  0  0  0  0  0  0  0  0  0  0  0
   -4.3683  -44.0049    5.7701 C   0  0  0  0  0  0  0  0  0  0  0  0
   -5.6111  -43.5273    5.3116 C   0  0  0  0  0  0  0  0  0  0  0  0
   -6.7775  -43.7552    6.0709 C   0  0  0  0  0  0  0  0  0  0  0  0
   -6.7018  -44.4463    7.2927 C   0  0  0  0  0  0  0  0  0  0  0  0
    1.1745  -50.5105    6.4276 N   0  0  0  0  0  0  0  0  0  0  0  0
    4.0952  -47.4182    6.9380 H   0  0  0  0  0  0  0  0  0  0  0  0
   -0.5203  -52.8549    6.4173 H   0  0  0  0  0  0  0  0  0  0  0  0
   -2.9590  -52.6902    5.8994 H   0  0  0  0  0  0  0  0  0  0  0  0
   -3.3225  -50.6305    4.5793 H   0  0  0  0  0  0  0  0  0  0  0  0
   -3.7021  -50.3802    6.3171 H   0  0  0  0  0  0  0  0  0  0  0  0
    1.1524  -46.5556    5.5393 H   0  0  0  0  0  0  0  0  0  0  0  0
   -0.6087  -46.7329    5.2330 H   0  0  0  0  0  0  0  0  0  0  0  0
   -0.8357  -47.0656    7.7858 H   0  0  0  0  0  0  0  0  0  0  0  0
    0.8455  -46.4423    7.8932 H   0  0  0  0  0  0  0  0  0  0  0  0
   -0.6811  -44.6322    8.3427 H   0  0  0  0  0  0  0  0  0  0  0  0
    0.0787  -44.3517    6.7394 H   0  0  0  0  0  0  0  0  0  0  0  0
   -6.2699  -45.7267    9.5892 H   0  0  0  0  0  0  0  0  0  0  0  0
   -4.0687  -46.4746   10.4593 H   0  0  0  0  0  0  0  0  0  0  0  0
   -2.0296  -46.1897    9.0898 H   0  0  0  0  0  0  0  0  0  0  0  0
   -3.4798  -43.8434    5.1777 H   0  0  0  0  0  0  0  0  0  0  0  0
   -5.6711  -42.9866    4.3786 H   0  0  0  0  0  0  0  0  0  0  0  0
   -7.7316  -43.3978    5.7127 H   0  0  0  0  0  0  0  0  0  0  0  0
   -7.5981  -44.6265    7.8676 H   0  0  0  0  0  0  0  0  0  0  0  0
  1  2  2  0  0  0  0
  2  3  1  0  0  0  0
  2  4  1  0  0  0  0
  4 11  2  0  0  0  0
  4 27  1  0  0  0  0
  5  6  1  0  0  0  0
  5 10  1  0  0  0  0
  5 27  2  0  0  0  0
  6  7  2  0  0  0  0
  7  8  1  0  0  0  0
  8  9  1  0  0  0  0
  9 10  2  0  0  0  0
  9 20  1  0  0  0  0
 10 11  1  0  0  0  0
 11 12  1  0  0  0  0
 12 13  1  0  0  0  0
 13 14  1  0  0  0  0
 14 15  1  0  0  0  0
 15 16  1  0  0  0  0
 16 19  2  0  0  0  0
 16 22  1  0  0  0  0
 17 18  2  0  0  0  0
 17 21  1  0  0  0  0
 18 19  1  0  0  0  0
 21 22  2  0  0  0  0
 21 26  1  0  0  0  0
 22 23  1  0  0  0  0
 23 24  2  0  0  0  0
 24 25  1  0  0  0  0
 25 26  2  0  0  0  0
  3 28  1  0  0  0  0
  6 29  1  0  0  0  0
  7 30  1  0  0  0  0
  8 31  1  0  0  0  0
  8 32  1  0  0  0  0
 12 33  1  0  0  0  0
 12 34  1  0  0  0  0
 13 35  1  0  0  0  0
 13 36  1  0  0  0  0
 14 37  1  0  0  0  0
 14 38  1  0  0  0  0
 17 39  1  0  0  0  0
 18 40  1  0  0  0  0
 19 41  1  0  0  0  0
 23 42  1  0  0  0  0
 24 43  1  0  0  0  0
 25 44  1  0  0  0  0
 26 45  1  0  0  0  0
M  END
> <r_user_dG.exp>
-8.44846494324944

$$$$
51
  -OEChem-05192314073D
 Structure written by MMmdl.
 45 48  0     0  0  0  0  0  0999 V2000
    3.7527  -49.6152    6.8636 O   0  0  0  0  0  0  0  0  0  0  0  0
    2.8848  -48.7317    6.6600 C   0  0  0  0  0  0  0  0  0  0  0  0
    3.1745  -47.5142    6.7244 O   0  0  0  0  0  0  0  0  0  0  0  0
    1.4963  -49.1647    6.3449 C   0  0  0  0  0  0  0  0  0  0  0  0
   -0.1706  -50.7326    6.1724 C   0  0  0  0  0  0  0  0  0  0  0  0
   -0.9638  -51.8980    6.1848 C   0  0  0  0  0  0  0  0  0  0  0  0
   -2.3385  -51.8063    5.8920 C   0  0  0  0  0  0  0  0  0  0  0  0
   -2.8945  -50.5470    5.5892 C   0  0  0  0  0  0  0  0  0  0  0  0
   -2.1048  -49.3755    5.5930 C   0  0  0  0  0  0  0  0  0  0  0  0
   -0.7152  -49.4395    5.8829 C   0  0  0  0  0  0  0  0  0  0  0  0
    0.3471  -48.4704    6.0111 C   0  0  0  0  0  0  0  0  0  0  0  0
    0.2138  -46.9863    5.9181 C   0  0  0  0  0  0  0  0  0  0  0  0
   -0.0845  -46.4209    7.3062 C   0  0  0  0  0  0  0  0  0  0  0  0
   -0.6144  -44.9916    7.3052 C   0  0  0  0  0  0  0  0  0  0  0  0
   -1.9032  -44.9246    6.7062 O   0  0  0  0  0  0  0  0  0  0  0  0
   -3.0236  -45.1515    7.4787 C   0  0  0  0  0  0  0  0  0  0  0  0
   -5.3750  -45.5596    9.0081 C   0  0  0  0  0  0  0  0  0  0  0  0
   -4.1326  -45.9972    9.4926 C   0  0  0  0  0  0  0  0  0  0  0  0
   -2.9744  -45.8157    8.7239 C   0  0  0  0  0  0  0  0  0  0  0  0
   -2.8919  -47.8611    5.2687 Cl  0  0  0  0  0  0  0  0  0  0  0  0
   -5.4558  -44.9041    7.7675 C   0  0  0  0  0  0  0  0  0  0  0  0
   -4.2759  -44.6954    7.0025 C   0  0  0  0  0  0  0  0  0  0  0  0
   -4.3683  -44.0049    5.7701 C   0  0  0  0  0  0  0  0  0  0  0  0
   -5.6111  -43.5273    5.3116 C   0  0  0  0  0  0  0  0  0  0  0  0
   -6.7775  -43.7552    6.0709 C   0  0  0  0  0  0  0  0  0  0  0  0
   -6.7018  -44.4463    7.2927 C   0  0  0  0  0  0  0  0  0  0  0  0
    1.1745  -50.5105    6.4276 N   0  0  0  0  0  0  0  0  0  0  0  0
    3.3576  -50.4745    6.7739 H   0  0  0  0  0  0  0  0  0  0  0  0
    2.4004  -46.9940    6.5434 H   0  0  0  0  0  0  0  0  0  0  0  0
   -0.5203  -52.8549    6.4173 H   0  0  0  0  0  0  0  0  0  0  0  0
   -2.9590  -52.6902    5.8994 H   0  0  0  0  0  0  0  0  0  0  0  0
   -3.9452  -50.4762    5.3495 H   0  0  0  0  0  0  0  0  0  0  0  0
    1.1524  -46.5556    5.5393 H   0  0  0  0  0  0  0  0  0  0  0  0
   -0.6087  -46.7329    5.2330 H   0  0  0  0  0  0  0  0  0  0  0  0
   -0.8357  -47.0656    7.7858 H   0  0  0  0  0  0  0  0  0  0  0  0
    0.8455  -46.4423    7.8932 H   0  0  0  0  0  0  0  0  0  0  0  0
   -0.6811  -44.6322    8.3427 H   0  0  0  0  0  0  0  0  0  0  0  0
    0.0787  -44.3517    6.7394 H   0  0  0  0  0  0  0  0  0  0  0  0
   -6.2699  -45.7267    9.5892 H   0  0  0  0  0  0  0  0  0  0  0  0
   -4.0687  -46.4746   10.4593 H   0  0  0  0  0  0  0  0  0  0  0  0
   -2.0296  -46.1897    9.0898 H   0  0  0  0  0  0  0  0  0  0  0  0
   -3.4798  -43.8434    5.1777 H   0  0  0  0  0  0  0  0  0  0  0  0
   -5.6711  -42.9866    4.3786 H   0  0  0  0  0  0  0  0  0  0  0  0
   -7.7316  -43.3978    5.7127 H   0  0  0  0  0  0  0  0  0  0  0  0
   -7.5981  -44.6265    7.8676 H   0  0  0  0  0  0  0  0  0  0  0  0
  1  2  1  0  0  0  0
  2  3  1  0  0  0  0
  2  4  2  0  0  0  0
  4 11  1  0  0  0  0
  4 27  1  0  0  0  0
  5  6  1  0  0  0  0
  5 10  1  0  0  0  0
  5 27  2  0  0  0  0
  6  7  2  0  0  0  0
  7  8  1  0  0  0  0
  8  9  2  0  0  0  0
  9 10  1  0  0  0  0
  9 20  1  0  0  0  0
 10 11  2  0  0  0  0
 11 12  1  0  0  0  0
 12 13  1  0  0  0  0
 13 14  1  0  0  0  0
 14 15  1  0  0  0  0
 15 16  1  0  0  0  0
 16 19  2  0  0  0  0
 16 22  1  0  0  0  0
 17 18  2  0  0  0  0
 17 21  1  0  0  0  0
 18 19  1  0  0  0  0
 21 22  2  0  0  0  0
 21 26  1  0  0  0  0
 22 23  1  0  0  0  0
 23 24  2  0  0  0  0
 24 25  1  0  0  0  0
 25 26  2  0  0  0  0
  1 28  1  0  0  0  0
  3 29  1  0  0  0  0
  6 30  1  0  0  0  0
  7 31  1  0  0  0  0
  8 32  1  0  0  0  0
 12 33  1  0  0  0  0
 12 34  1  0  0  0  0
 13 35  1  0  0  0  0
 13 36  1  0  0  0  0
 14 37  1  0  0  0  0
 14 38  1  0  0  0  0
 17 39  1  0  0  0  0
 18 40  1  0  0  0  0
 19 41  1  0  0  0  0
 23 42  1  0  0  0  0
 24 43  1  0  0  0  0
 25 44  1  0  0  0  0
 26 45  1  0  0  0  0
M  END
> <r_user_dG.exp>
-8.44846494324944

$$$$
