64
  -OEChem-05192314073D
 Structure written by MMmdl.
 44 47  0     0  0  0  0  0  0999 V2000
    3.7996  -50.0339    7.1693 O   0  0  0  0  0  0  0  0  0  0  0  0
    3.0736  -49.0720    6.8150 C   0  0  0  0  0  0  0  0  0  0  0  0
    3.5568  -47.9281    6.7106 O   0  0  0  0  0  0  0  0  0  0  0  0
    1.6291  -49.2883    6.5306 C   0  0  0  0  0  0  0  0  0  0  0  0
    1.0906  -50.9347    6.7544 S   0  0  0  0  0  0  0  0  0  0  0  0
   -0.5531  -50.5009    6.3439 C   0  0  0  0  0  0  0  0  0  0  0  0
   -1.6748  -51.3471    6.3184 C   0  0  0  0  0  0  0  0  0  0  0  0
   -2.9396  -50.8176    5.9964 C   0  0  0  0  0  0  0  0  0  0  0  0
   -3.0703  -49.4498    5.6863 C   0  0  0  0  0  0  0  0  0  0  0  0
   -1.9354  -48.6227    5.6975 C   0  0  0  0  0  0  0  0  0  0  0  0
   -0.6477  -49.1138    6.0302 C   0  0  0  0  0  0  0  0  0  0  0  0
    0.6267  -48.4212    6.1334 C   0  0  0  0  0  0  0  0  0  0  0  0
    0.7576  -46.9454    5.8670 C   0  0  0  0  0  0  0  0  0  0  0  0
    0.6927  -46.0787    7.1424 C   0  0  0  0  0  0  0  0  0  0  0  0
   -0.4919  -46.3659    8.0891 C   0  0  0  0  0  0  0  0  0  0  0  0
   -1.7426  -45.9685    7.5206 O   0  0  0  0  0  0  0  0  0  0  0  0
   -2.9139  -46.2506    8.2081 C   0  0  0  0  0  0  0  0  0  0  0  0
   -5.3832  -46.7623    9.5425 C   0  0  0  0  0  0  0  0  0  0  0  0
   -4.2148  -47.4264    9.9411 C   0  0  0  0  0  0  0  0  0  0  0  0
   -2.9951  -47.1799    9.2808 C   0  0  0  0  0  0  0  0  0  0  0  0
   -4.3321  -51.8139    5.9914 Cl  0  0  0  0  0  0  0  0  0  0  0  0
   -5.3384  -45.8553    8.4662 C   0  0  0  0  0  0  0  0  0  0  0  0
   -4.1071  -45.6003    7.7993 C   0  0  0  0  0  0  0  0  0  0  0  0
   -4.0955  -44.6862    6.7189 C   0  0  0  0  0  0  0  0  0  0  0  0
   -5.2802  -44.0441    6.3080 C   0  0  0  0  0  0  0  0  0  0  0  0
   -6.4964  -44.3049    6.9742 C   0  0  0  0  0  0  0  0  0  0  0  0
   -6.5207  -45.2090    8.0541 C   0  0  0  0  0  0  0  0  0  0  0  0
    4.4802  -47.9524    6.9326 H   0  0  0  0  0  0  0  0  0  0  0  0
   -1.5676  -52.3977    6.5445 H   0  0  0  0  0  0  0  0  0  0  0  0
   -4.0386  -49.0391    5.4411 H   0  0  0  0  0  0  0  0  0  0  0  0
   -2.0472  -47.5787    5.4445 H   0  0  0  0  0  0  0  0  0  0  0  0
    1.7240  -46.7656    5.3733 H   0  0  0  0  0  0  0  0  0  0  0  0
   -0.0591  -46.6393    5.1967 H   0  0  0  0  0  0  0  0  0  0  0  0
    1.6229  -46.2390    7.7073 H   0  0  0  0  0  0  0  0  0  0  0  0
    0.6291  -45.0253    6.8319 H   0  0  0  0  0  0  0  0  0  0  0  0
   -0.5246  -47.4451    8.2992 H   0  0  0  0  0  0  0  0  0  0  0  0
   -0.3376  -45.8140    9.0281 H   0  0  0  0  0  0  0  0  0  0  0  0
   -6.3140  -46.9455   10.0588 H   0  0  0  0  0  0  0  0  0  0  0  0
   -4.2499  -48.1309   10.7589 H   0  0  0  0  0  0  0  0  0  0  0  0
   -2.1059  -47.7062    9.5951 H   0  0  0  0  0  0  0  0  0  0  0  0
   -3.1690  -44.4788    6.2042 H   0  0  0  0  0  0  0  0  0  0  0  0
   -5.2575  -43.3502    5.4807 H   0  0  0  0  0  0  0  0  0  0  0  0
   -7.4045  -43.8136    6.6576 H   0  0  0  0  0  0  0  0  0  0  0  0
   -7.4494  -45.4076    8.5683 H   0  0  0  0  0  0  0  0  0  0  0  0
  1  2  2  0  0  0  0
  2  3  1  0  0  0  0
  2  4  1  0  0  0  0
  4  5  1  0  0  0  0
  4 12  2  0  0  0  0
  5  6  1  0  0  0  0
  6  7  2  0  0  0  0
  6 11  1  0  0  0  0
  7  8  1  0  0  0  0
  8  9  2  0  0  0  0
  8 21  1  0  0  0  0
  9 10  1  0  0  0  0
 10 11  2  0  0  0  0
 11 12  1  0  0  0  0
 12 13  1  0  0  0  0
 13 14  1  0  0  0  0
 14 15  1  0  0  0  0
 15 16  1  0  0  0  0
 16 17  1  0  0  0  0
 17 20  2  0  0  0  0
 17 23  1  0  0  0  0
 18 19  2  0  0  0  0
 18 22  1  0  0  0  0
 19 20  1  0  0  0  0
 22 23  2  0  0  0  0
 22 27  1  0  0  0  0
 23 24  1  0  0  0  0
 24 25  2  0  0  0  0
 25 26  1  0  0  0  0
 26 27  2  0  0  0  0
  3 28  1  0  0  0  0
  7 29  1  0  0  0  0
  9 30  1  0  0  0  0
 10 31  1  0  0  0  0
 13 32  1  0  0  0  0
 13 33  1  0  0  0  0
 14 34  1  0  0  0  0
 14 35  1  0  0  0  0
 15 36  1  0  0  0  0
 15 37  1  0  0  0  0
 18 38  1  0  0  0  0
 19 39  1  0  0  0  0
 20 40  1  0  0  0  0
 24 41  1  0  0  0  0
 25 42  1  0  0  0  0
 26 43  1  0  0  0  0
 27 44  1  0  0  0  0
M  END
> <r_user_dG.exp>
-9.4997930107542

$$$$
