56
  -OEChem-05162309453D
 Structure written by MMmdl.
 48 50  0     0  0  0  0  0  0999 V2000
    3.8860  -49.6912    7.1567 O   0  0  0  0  0  0  0  0  0  0  0  0
    3.1152  -48.8646    6.6079 C   0  0  0  0  0  0  0  0  0  0  0  0
    3.5628  -47.7316    6.3168 O   0  0  0  0  0  0  0  0  0  0  0  0
    1.6860  -49.2230    6.3249 C   0  0  0  0  0  0  0  0  0  0  0  0
   -0.1971  -50.5147    6.2703 C   0  0  0  0  0  0  0  0  0  0  0  0
   -1.1985  -51.5173    6.3677 C   0  0  0  0  0  0  0  0  0  0  0  0
   -2.5251  -51.2521    5.9892 C   0  0  0  0  0  0  0  0  0  0  0  0
   -2.8500  -49.9692    5.4926 C   0  0  0  0  0  0  0  0  0  0  0  0
   -1.8593  -48.9599    5.3776 C   0  0  0  0  0  0  0  0  0  0  0  0
   -0.5124  -49.2088    5.7723 C   0  0  0  0  0  0  0  0  0  0  0  0
    0.6850  -48.4219    5.8067 C   0  0  0  0  0  0  0  0  0  0  0  0
    0.7943  -46.9841    5.3695 C   0  0  0  0  0  0  0  0  0  0  0  0
    0.7867  -45.9897    6.5468 C   0  0  0  0  0  0  0  0  0  0  0  0
   -0.5620  -45.9184    7.2689 C   0  0  0  0  0  0  0  0  0  0  0  0
   -1.5108  -45.3393    6.3843 O   0  0  0  0  0  0  0  0  0  0  0  0
   -2.7734  -45.0766    6.8667 C   0  0  0  0  0  0  0  0  0  0  0  0
   -3.2521  -45.5115    8.1245 C   0  0  0  0  0  0  0  0  0  0  0  0
   -4.5558  -45.1862    8.5488 C   0  0  0  0  0  0  0  0  0  0  0  0
   -5.0405  -45.6887    9.8958 C   0  0  0  0  0  0  0  0  0  0  0  0
   -5.3922  -44.4078    7.7183 C   0  0  0  0  0  0  0  0  0  0  0  0
   -6.9812  -43.9831    8.2402 Cl  0  0  0  0  0  0  0  0  0  0  0  0
   -4.9232  -43.9759    6.4562 C   0  0  0  0  0  0  0  0  0  0  0  0
   -5.7953  -43.1306    5.5483 C   0  0  0  0  0  0  0  0  0  0  0  0
   -3.6246  -44.3209    6.0415 C   0  0  0  0  0  0  0  0  0  0  0  0
    1.8852  -51.6780    7.1113 C   0  0  0  0  0  0  0  0  0  0  0  0
    1.1675  -50.5139    6.5888 N   0  0  0  0  0  0  0  0  0  0  0  0
    4.4752  -47.6751    6.5752 H   0  0  0  0  0  0  0  0  0  0  0  0
   -0.9363  -52.4974    6.7380 H   0  0  0  0  0  0  0  0  0  0  0  0
   -3.2840  -52.0156    6.0762 H   0  0  0  0  0  0  0  0  0  0  0  0
   -3.8662  -49.7543    5.1967 H   0  0  0  0  0  0  0  0  0  0  0  0
   -2.1293  -47.9903    4.9859 H   0  0  0  0  0  0  0  0  0  0  0  0
    1.7342  -46.8587    4.8119 H   0  0  0  0  0  0  0  0  0  0  0  0
   -0.0562  -46.7532    4.7112 H   0  0  0  0  0  0  0  0  0  0  0  0
    1.5547  -46.2995    7.2708 H   0  0  0  0  0  0  0  0  0  0  0  0
    1.0295  -44.9888    6.1604 H   0  0  0  0  0  0  0  0  0  0  0  0
   -0.8865  -46.9306    7.5518 H   0  0  0  0  0  0  0  0  0  0  0  0
   -0.4681  -45.2976    8.1721 H   0  0  0  0  0  0  0  0  0  0  0  0
   -2.6120  -46.0988    8.7662 H   0  0  0  0  0  0  0  0  0  0  0  0
   -4.7987  -44.9483   10.6726 H   0  0  0  0  0  0  0  0  0  0  0  0
   -6.1294  -45.8404    9.8602 H   0  0  0  0  0  0  0  0  0  0  0  0
   -4.5450  -46.6421   10.1313 H   0  0  0  0  0  0  0  0  0  0  0  0
   -5.6311  -42.0655    5.7690 H   0  0  0  0  0  0  0  0  0  0  0  0
   -5.5349  -43.3318    4.4987 H   0  0  0  0  0  0  0  0  0  0  0  0
   -6.8527  -43.3814    5.7184 H   0  0  0  0  0  0  0  0  0  0  0  0
   -3.2748  -43.9995    5.0716 H   0  0  0  0  0  0  0  0  0  0  0  0
    1.1918  -52.5273    7.2004 H   0  0  0  0  0  0  0  0  0  0  0  0
    2.7030  -51.9429    6.4249 H   0  0  0  0  0  0  0  0  0  0  0  0
    2.3005  -51.4385    8.1013 H   0  0  0  0  0  0  0  0  0  0  0  0
  1  2  2  0  0  0  0
  2  3  1  0  0  0  0
  2  4  1  0  0  0  0
  4 11  2  0  0  0  0
  4 26  1  0  0  0  0
  5  6  2  0  0  0  0
  5 10  1  0  0  0  0
  5 26  1  0  0  0  0
  6  7  1  0  0  0  0
  7  8  2  0  0  0  0
  8  9  1  0  0  0  0
  9 10  2  0  0  0  0
 10 11  1  0  0  0  0
 11 12  1  0  0  0  0
 12 13  1  0  0  0  0
 13 14  1  0  0  0  0
 14 15  1  0  0  0  0
 15 16  1  0  0  0  0
 16 17  2  0  0  0  0
 16 24  1  0  0  0  0
 17 18  1  0  0  0  0
 18 19  1  0  0  0  0
 18 20  2  0  0  0  0
 20 21  1  0  0  0  0
 20 22  1  0  0  0  0
 22 23  1  0  0  0  0
 22 24  2  0  0  0  0
 25 26  1  0  0  0  0
  3 27  1  0  0  0  0
  6 28  1  0  0  0  0
  7 29  1  0  0  0  0
  8 30  1  0  0  0  0
  9 31  1  0  0  0  0
 12 32  1  0  0  0  0
 12 33  1  0  0  0  0
 13 34  1  0  0  0  0
 13 35  1  0  0  0  0
 14 36  1  0  0  0  0
 14 37  1  0  0  0  0
 17 38  1  0  0  0  0
 19 39  1  0  0  0  0
 19 40  1  0  0  0  0
 19 41  1  0  0  0  0
 23 42  1  0  0  0  0
 23 43  1  0  0  0  0
 23 44  1  0  0  0  0
 24 45  1  0  0  0  0
 25 46  1  0  0  0  0
 25 47  1  0  0  0  0
 25 48  1  0  0  0  0
M  END
> <r_user_dG.exp>
-9.25808309585768

$$$$
