29
  -OEChem-05162309453D
 Structure written by MMmdl.
 42 44  0     0  0  0  0  0  0999 V2000
    3.4235  -47.4990    6.3034 O   0  0  0  0  0  0  0  0  0  0  0  0
    3.0281  -48.6146    6.7306 C   0  0  0  0  0  0  0  0  0  0  0  0
    3.7777  -49.3670    7.3880 O   0  0  0  0  0  0  0  0  0  0  0  0
    1.6462  -49.0711    6.4354 C   0  0  0  0  0  0  0  0  0  0  0  0
   -0.0124  -50.6359    6.4318 C   0  0  0  0  0  0  0  0  0  0  0  0
   -0.8349  -51.7756    6.5605 C   0  0  0  0  0  0  0  0  0  0  0  0
   -2.1553  -51.7463    6.0659 C   0  0  0  0  0  0  0  0  0  0  0  0
   -2.6490  -50.5721    5.4633 C   0  0  0  0  0  0  0  0  0  0  0  0
   -1.8305  -49.4302    5.3533 C   0  0  0  0  0  0  0  0  0  0  0  0
   -0.4988  -49.4369    5.8254 C   0  0  0  0  0  0  0  0  0  0  0  0
    0.5621  -48.4620    5.8353 C   0  0  0  0  0  0  0  0  0  0  0  0
    0.4741  -47.0549    5.3074 C   0  0  0  0  0  0  0  0  0  0  0  0
    0.2593  -45.9878    6.3953 C   0  0  0  0  0  0  0  0  0  0  0  0
   -0.9490  -46.2558    7.3130 C   0  0  0  0  0  0  0  0  0  0  0  0
   -2.1030  -46.5044    6.5056 O   0  0  0  0  0  0  0  0  0  0  0  0
   -3.2262  -45.7691    6.7833 C   0  0  0  0  0  0  0  0  0  0  0  0
   -3.9083  -45.8174    8.0302 C   0  0  0  0  0  0  0  0  0  0  0  0
   -5.0388  -45.0029    8.2360 C   0  0  0  0  0  0  0  0  0  0  0  0
   -5.5258  -44.1802    7.2022 C   0  0  0  0  0  0  0  0  0  0  0  0
   -4.8795  -44.1671    5.9535 C   0  0  0  0  0  0  0  0  0  0  0  0
   -3.7380  -44.9715    5.7491 C   0  0  0  0  0  0  0  0  0  0  0  0
    1.2854  -50.3610    6.7961 N   0  0  0  0  0  0  0  0  0  0  0  0
   -2.4349  -46.1863    9.7809 F   0  0  0  0  0  0  0  0  0  0  0  0
   -3.4514  -46.7482    9.1429 C   0  0  0  0  0  0  0  0  0  0  0  0
   -4.4113  -46.9759   10.0447 F   0  0  0  0  0  0  0  0  0  0  0  0
   -3.0629  -47.9301    8.6622 F   0  0  0  0  0  0  0  0  0  0  0  0
    4.6292  -48.9578    7.4880 H   0  0  0  0  0  0  0  0  0  0  0  0
   -0.4543  -52.6674    7.0363 H   0  0  0  0  0  0  0  0  0  0  0  0
   -2.7851  -52.6197    6.1486 H   0  0  0  0  0  0  0  0  0  0  0  0
   -3.6598  -50.5471    5.0838 H   0  0  0  0  0  0  0  0  0  0  0  0
   -2.2282  -48.5341    4.9001 H   0  0  0  0  0  0  0  0  0  0  0  0
    1.4108  -46.8252    4.7784 H   0  0  0  0  0  0  0  0  0  0  0  0
   -0.3679  -47.0028    4.6015 H   0  0  0  0  0  0  0  0  0  0  0  0
    1.1639  -45.9448    7.0197 H   0  0  0  0  0  0  0  0  0  0  0  0
    0.1084  -45.0168    5.9010 H   0  0  0  0  0  0  0  0  0  0  0  0
   -0.7449  -47.1333    7.9441 H   0  0  0  0  0  0  0  0  0  0  0  0
   -1.1283  -45.3784    7.9518 H   0  0  0  0  0  0  0  0  0  0  0  0
   -5.5362  -45.0094    9.1946 H   0  0  0  0  0  0  0  0  0  0  0  0
   -6.3944  -43.5602    7.3681 H   0  0  0  0  0  0  0  0  0  0  0  0
   -5.2548  -43.5445    5.1547 H   0  0  0  0  0  0  0  0  0  0  0  0
   -3.2525  -44.9730    4.7844 H   0  0  0  0  0  0  0  0  0  0  0  0
    1.8904  -51.0075    7.2608 H   0  0  0  0  0  0  0  0  0  0  0  0
  1  2  2  0  0  0  0
  2  3  1  0  0  0  0
  2  4  1  0  0  0  0
  4 11  2  0  0  0  0
  4 22  1  0  0  0  0
  5  6  2  0  0  0  0
  5 10  1  0  0  0  0
  5 22  1  0  0  0  0
  6  7  1  0  0  0  0
  7  8  2  0  0  0  0
  8  9  1  0  0  0  0
  9 10  2  0  0  0  0
 10 11  1  0  0  0  0
 11 12  1  0  0  0  0
 12 13  1  0  0  0  0
 13 14  1  0  0  0  0
 14 15  1  0  0  0  0
 15 16  1  0  0  0  0
 16 17  2  0  0  0  0
 16 21  1  0  0  0  0
 17 18  1  0  0  0  0
 17 24  1  0  0  0  0
 18 19  2  0  0  0  0
 19 20  1  0  0  0  0
 20 21  2  0  0  0  0
 23 24  1  0  0  0  0
 24 25  1  0  0  0  0
 24 26  1  0  0  0  0
  3 27  1  0  0  0  0
  6 28  1  0  0  0  0
  7 29  1  0  0  0  0
  8 30  1  0  0  0  0
  9 31  1  0  0  0  0
 12 32  1  0  0  0  0
 12 33  1  0  0  0  0
 13 34  1  0  0  0  0
 13 35  1  0  0  0  0
 14 36  1  0  0  0  0
 14 37  1  0  0  0  0
 18 38  1  0  0  0  0
 19 39  1  0  0  0  0
 20 40  1  0  0  0  0
 21 41  1  0  0  0  0
 22 42  1  0  0  0  0
M  END
> <r_user_dG.exp>
-6.93940556519089

$$$$
29
  -OEChem-05162309453D
 Structure written by MMmdl.
 42 44  0     1  0  0  0  0  0999 V2000
    3.4235  -47.4990    6.3034 O   0  0  0  0  0  0  0  0  0  0  0  0
    3.0281  -48.6146    6.7306 C   0  0  0  0  0  0  0  0  0  0  0  0
    3.7777  -49.3670    7.3880 O   0  0  0  0  0  0  0  0  0  0  0  0
    1.6462  -49.0711    6.4354 C   0  0  0  0  0  0  0  0  0  0  0  0
   -0.0124  -50.6359    6.4318 C   0  0  0  0  0  0  0  0  0  0  0  0
   -0.8349  -51.7756    6.5605 C   0  0  0  0  0  0  0  0  0  0  0  0
   -2.1553  -51.7463    6.0659 C   0  0  0  0  0  0  0  0  0  0  0  0
   -2.6490  -50.5721    5.4633 C   0  0  0  0  0  0  0  0  0  0  0  0
   -1.8305  -49.4302    5.3533 C   0  0  0  0  0  0  0  0  0  0  0  0
   -0.4988  -49.4369    5.8254 C   0  0  0  0  0  0  0  0  0  0  0  0
    0.5621  -48.4620    5.8353 C   0  0  3  0  0  0  0  0  0  0  0  0
    0.4741  -47.0549    5.3074 C   0  0  0  0  0  0  0  0  0  0  0  0
    0.2593  -45.9878    6.3953 C   0  0  0  0  0  0  0  0  0  0  0  0
   -0.9490  -46.2558    7.3130 C   0  0  0  0  0  0  0  0  0  0  0  0
   -2.1030  -46.5044    6.5056 O   0  0  0  0  0  0  0  0  0  0  0  0
   -3.2262  -45.7691    6.7833 C   0  0  0  0  0  0  0  0  0  0  0  0
   -3.9083  -45.8174    8.0302 C   0  0  0  0  0  0  0  0  0  0  0  0
   -5.0388  -45.0029    8.2360 C   0  0  0  0  0  0  0  0  0  0  0  0
   -5.5258  -44.1802    7.2022 C   0  0  0  0  0  0  0  0  0  0  0  0
   -4.8795  -44.1671    5.9535 C   0  0  0  0  0  0  0  0  0  0  0  0
   -3.7380  -44.9715    5.7491 C   0  0  0  0  0  0  0  0  0  0  0  0
    1.2854  -50.3610    6.7961 N   0  0  0  0  0  0  0  0  0  0  0  0
   -2.4349  -46.1863    9.7809 F   0  0  0  0  0  0  0  0  0  0  0  0
   -3.4514  -46.7482    9.1429 C   0  0  0  0  0  0  0  0  0  0  0  0
   -4.4113  -46.9759   10.0447 F   0  0  0  0  0  0  0  0  0  0  0  0
   -3.0629  -47.9301    8.6622 F   0  0  0  0  0  0  0  0  0  0  0  0
    4.6292  -48.9578    7.4880 H   0  0  0  0  0  0  0  0  0  0  0  0
   -0.4543  -52.6674    7.0363 H   0  0  0  0  0  0  0  0  0  0  0  0
   -2.7851  -52.6197    6.1486 H   0  0  0  0  0  0  0  0  0  0  0  0
   -3.6598  -50.5471    5.0838 H   0  0  0  0  0  0  0  0  0  0  0  0
   -2.2282  -48.5341    4.9001 H   0  0  0  0  0  0  0  0  0  0  0  0
    0.9023  -48.8151    4.8506 H   0  0  0  0  0  0  0  0  0  0  0  0
    1.4108  -46.8252    4.7784 H   0  0  0  0  0  0  0  0  0  0  0  0
   -0.3679  -47.0028    4.6015 H   0  0  0  0  0  0  0  0  0  0  0  0
    1.1639  -45.9448    7.0197 H   0  0  0  0  0  0  0  0  0  0  0  0
    0.1084  -45.0168    5.9010 H   0  0  0  0  0  0  0  0  0  0  0  0
   -0.7449  -47.1333    7.9441 H   0  0  0  0  0  0  0  0  0  0  0  0
   -1.1283  -45.3784    7.9518 H   0  0  0  0  0  0  0  0  0  0  0  0
   -5.5362  -45.0094    9.1946 H   0  0  0  0  0  0  0  0  0  0  0  0
   -6.3944  -43.5602    7.3681 H   0  0  0  0  0  0  0  0  0  0  0  0
   -5.2548  -43.5445    5.1547 H   0  0  0  0  0  0  0  0  0  0  0  0
   -3.2525  -44.9730    4.7844 H   0  0  0  0  0  0  0  0  0  0  0  0
  1  2  2  0  0  0  0
  2  3  1  0  0  0  0
  2  4  1  0  0  0  0
  4 11  1  0  0  0  0
  4 22  2  0  0  0  0
  5  6  2  0  0  0  0
  5 10  1  0  0  0  0
  5 22  1  0  0  0  0
  6  7  1  0  0  0  0
  7  8  2  0  0  0  0
  8  9  1  0  0  0  0
  9 10  2  0  0  0  0
 10 11  1  0  0  0  0
 11 12  1  0  0  0  0
 12 13  1  0  0  0  0
 13 14  1  0  0  0  0
 14 15  1  0  0  0  0
 15 16  1  0  0  0  0
 16 17  2  0  0  0  0
 16 21  1  0  0  0  0
 17 18  1  0  0  0  0
 17 24  1  0  0  0  0
 18 19  2  0  0  0  0
 19 20  1  0  0  0  0
 20 21  2  0  0  0  0
 23 24  1  0  0  0  0
 24 25  1  0  0  0  0
 24 26  1  0  0  0  0
  3 27  1  0  0  0  0
  6 28  1  0  0  0  0
  7 29  1  0  0  0  0
  8 30  1  0  0  0  0
  9 31  1  0  0  0  0
 11 32  1  0  0  0  0
 12 33  1  0  0  0  0
 12 34  1  0  0  0  0
 13 35  1  0  0  0  0
 13 36  1  0  0  0  0
 14 37  1  0  0  0  0
 14 38  1  0  0  0  0
 18 39  1  0  0  0  0
 19 40  1  0  0  0  0
 20 41  1  0  0  0  0
 21 42  1  0  0  0  0
M  END
> <r_user_dG.exp>
-6.93940556519089

$$$$
29
  -OEChem-05162309453D
 Structure written by MMmdl.
 42 44  0     1  0  0  0  0  0999 V2000
    3.4235  -47.4990    6.3034 O   0  0  0  0  0  0  0  0  0  0  0  0
    3.0281  -48.6146    6.7306 C   0  0  0  0  0  0  0  0  0  0  0  0
    3.7777  -49.3670    7.3880 O   0  0  0  0  0  0  0  0  0  0  0  0
    1.6462  -49.0711    6.4354 C   0  0  3  0  0  0  0  0  0  0  0  0
   -0.0124  -50.6359    6.4318 C   0  0  0  0  0  0  0  0  0  0  0  0
   -0.8349  -51.7756    6.5605 C   0  0  0  0  0  0  0  0  0  0  0  0
   -2.1553  -51.7463    6.0659 C   0  0  0  0  0  0  0  0  0  0  0  0
   -2.6490  -50.5721    5.4633 C   0  0  0  0  0  0  0  0  0  0  0  0
   -1.8305  -49.4302    5.3533 C   0  0  0  0  0  0  0  0  0  0  0  0
   -0.4988  -49.4369    5.8254 C   0  0  0  0  0  0  0  0  0  0  0  0
    0.5621  -48.4620    5.8353 C   0  0  0  0  0  0  0  0  0  0  0  0
    0.4741  -47.0549    5.3074 C   0  0  0  0  0  0  0  0  0  0  0  0
    0.2593  -45.9878    6.3953 C   0  0  0  0  0  0  0  0  0  0  0  0
   -0.9490  -46.2558    7.3130 C   0  0  0  0  0  0  0  0  0  0  0  0
   -2.1030  -46.5044    6.5056 O   0  0  0  0  0  0  0  0  0  0  0  0
   -3.2262  -45.7691    6.7833 C   0  0  0  0  0  0  0  0  0  0  0  0
   -3.9083  -45.8174    8.0302 C   0  0  0  0  0  0  0  0  0  0  0  0
   -5.0388  -45.0029    8.2360 C   0  0  0  0  0  0  0  0  0  0  0  0
   -5.5258  -44.1802    7.2022 C   0  0  0  0  0  0  0  0  0  0  0  0
   -4.8795  -44.1671    5.9535 C   0  0  0  0  0  0  0  0  0  0  0  0
   -3.7380  -44.9715    5.7491 C   0  0  0  0  0  0  0  0  0  0  0  0
    1.2854  -50.3610    6.7961 N   0  0  0  0  0  0  0  0  0  0  0  0
   -2.4349  -46.1863    9.7809 F   0  0  0  0  0  0  0  0  0  0  0  0
   -3.4514  -46.7482    9.1429 C   0  0  0  0  0  0  0  0  0  0  0  0
   -4.4113  -46.9759   10.0447 F   0  0  0  0  0  0  0  0  0  0  0  0
   -3.0629  -47.9301    8.6622 F   0  0  0  0  0  0  0  0  0  0  0  0
    4.6292  -48.9578    7.4880 H   0  0  0  0  0  0  0  0  0  0  0  0
    1.3129  -48.7017    7.4164 H   0  0  0  0  0  0  0  0  0  0  0  0
   -0.4543  -52.6674    7.0363 H   0  0  0  0  0  0  0  0  0  0  0  0
   -2.7851  -52.6197    6.1486 H   0  0  0  0  0  0  0  0  0  0  0  0
   -3.6598  -50.5471    5.0838 H   0  0  0  0  0  0  0  0  0  0  0  0
   -2.2282  -48.5341    4.9001 H   0  0  0  0  0  0  0  0  0  0  0  0
    1.4108  -46.8252    4.7784 H   0  0  0  0  0  0  0  0  0  0  0  0
   -0.3679  -47.0028    4.6015 H   0  0  0  0  0  0  0  0  0  0  0  0
    1.1639  -45.9448    7.0197 H   0  0  0  0  0  0  0  0  0  0  0  0
    0.1084  -45.0168    5.9010 H   0  0  0  0  0  0  0  0  0  0  0  0
   -0.7449  -47.1333    7.9441 H   0  0  0  0  0  0  0  0  0  0  0  0
   -1.1283  -45.3784    7.9518 H   0  0  0  0  0  0  0  0  0  0  0  0
   -5.5362  -45.0094    9.1946 H   0  0  0  0  0  0  0  0  0  0  0  0
   -6.3944  -43.5602    7.3681 H   0  0  0  0  0  0  0  0  0  0  0  0
   -5.2548  -43.5445    5.1547 H   0  0  0  0  0  0  0  0  0  0  0  0
   -3.2525  -44.9730    4.7844 H   0  0  0  0  0  0  0  0  0  0  0  0
  1  2  2  0  0  0  0
  2  3  1  0  0  0  0
  2  4  1  0  0  0  0
  4 11  1  0  0  0  0
  4 22  1  0  0  0  0
  5  6  1  0  0  0  0
  5 10  1  0  0  0  0
  5 22  2  0  0  0  0
  6  7  2  0  0  0  0
  7  8  1  0  0  0  0
  8  9  2  0  0  0  0
  9 10  1  0  0  0  0
 10 11  2  0  0  0  0
 11 12  1  0  0  0  0
 12 13  1  0  0  0  0
 13 14  1  0  0  0  0
 14 15  1  0  0  0  0
 15 16  1  0  0  0  0
 16 17  2  0  0  0  0
 16 21  1  0  0  0  0
 17 18  1  0  0  0  0
 17 24  1  0  0  0  0
 18 19  2  0  0  0  0
 19 20  1  0  0  0  0
 20 21  2  0  0  0  0
 23 24  1  0  0  0  0
 24 25  1  0  0  0  0
 24 26  1  0  0  0  0
  3 27  1  0  0  0  0
  4 28  1  0  0  0  0
  6 29  1  0  0  0  0
  7 30  1  0  0  0  0
  8 31  1  0  0  0  0
  9 32  1  0  0  0  0
 12 33  1  0  0  0  0
 12 34  1  0  0  0  0
 13 35  1  0  0  0  0
 13 36  1  0  0  0  0
 14 37  1  0  0  0  0
 14 38  1  0  0  0  0
 18 39  1  0  0  0  0
 19 40  1  0  0  0  0
 20 41  1  0  0  0  0
 21 42  1  0  0  0  0
M  END
> <r_user_dG.exp>
-6.93940556519089

$$$$
29
  -OEChem-05162309453D
 Structure written by MMmdl.
 42 44  0     1  0  0  0  0  0999 V2000
    3.4235  -47.4990    6.3034 O   0  0  0  0  0  0  0  0  0  0  0  0
    3.0281  -48.6146    6.7306 C   0  0  0  0  0  0  0  0  0  0  0  0
    3.7777  -49.3670    7.3880 O   0  0  0  0  0  0  0  0  0  0  0  0
    1.6462  -49.0711    6.4354 C   0  0  0  0  0  0  0  0  0  0  0  0
   -0.0124  -50.6359    6.4318 C   0  0  0  0  0  0  0  0  0  0  0  0
   -0.8349  -51.7756    6.5605 C   0  0  0  0  0  0  0  0  0  0  0  0
   -2.1553  -51.7463    6.0659 C   0  0  0  0  0  0  0  0  0  0  0  0
   -2.6490  -50.5721    5.4633 C   0  0  0  0  0  0  0  0  0  0  0  0
   -1.8305  -49.4302    5.3533 C   0  0  0  0  0  0  0  0  0  0  0  0
   -0.4988  -49.4369    5.8254 C   0  0  3  0  0  0  0  0  0  0  0  0
    0.5621  -48.4620    5.8353 C   0  0  0  0  0  0  0  0  0  0  0  0
    0.4741  -47.0549    5.3074 C   0  0  0  0  0  0  0  0  0  0  0  0
    0.2593  -45.9878    6.3953 C   0  0  0  0  0  0  0  0  0  0  0  0
   -0.9490  -46.2558    7.3130 C   0  0  0  0  0  0  0  0  0  0  0  0
   -2.1030  -46.5044    6.5056 O   0  0  0  0  0  0  0  0  0  0  0  0
   -3.2262  -45.7691    6.7833 C   0  0  0  0  0  0  0  0  0  0  0  0
   -3.9083  -45.8174    8.0302 C   0  0  0  0  0  0  0  0  0  0  0  0
   -5.0388  -45.0029    8.2360 C   0  0  0  0  0  0  0  0  0  0  0  0
   -5.5258  -44.1802    7.2022 C   0  0  0  0  0  0  0  0  0  0  0  0
   -4.8795  -44.1671    5.9535 C   0  0  0  0  0  0  0  0  0  0  0  0
   -3.7380  -44.9715    5.7491 C   0  0  0  0  0  0  0  0  0  0  0  0
    1.2854  -50.3610    6.7961 N   0  0  0  0  0  0  0  0  0  0  0  0
   -2.4349  -46.1863    9.7809 F   0  0  0  0  0  0  0  0  0  0  0  0
   -3.4514  -46.7482    9.1429 C   0  0  0  0  0  0  0  0  0  0  0  0
   -4.4113  -46.9759   10.0447 F   0  0  0  0  0  0  0  0  0  0  0  0
   -3.0629  -47.9301    8.6622 F   0  0  0  0  0  0  0  0  0  0  0  0
    4.6292  -48.9578    7.4880 H   0  0  0  0  0  0  0  0  0  0  0  0
   -0.4543  -52.6674    7.0363 H   0  0  0  0  0  0  0  0  0  0  0  0
   -2.7851  -52.6197    6.1486 H   0  0  0  0  0  0  0  0  0  0  0  0
   -3.6598  -50.5471    5.0838 H   0  0  0  0  0  0  0  0  0  0  0  0
   -2.2282  -48.5341    4.9001 H   0  0  0  0  0  0  0  0  0  0  0  0
   -0.8421  -49.0770    6.8065 H   0  0  0  0  0  0  0  0  0  0  0  0
    1.4108  -46.8252    4.7784 H   0  0  0  0  0  0  0  0  0  0  0  0
   -0.3679  -47.0028    4.6015 H   0  0  0  0  0  0  0  0  0  0  0  0
    1.1639  -45.9448    7.0197 H   0  0  0  0  0  0  0  0  0  0  0  0
    0.1084  -45.0168    5.9010 H   0  0  0  0  0  0  0  0  0  0  0  0
   -0.7449  -47.1333    7.9441 H   0  0  0  0  0  0  0  0  0  0  0  0
   -1.1283  -45.3784    7.9518 H   0  0  0  0  0  0  0  0  0  0  0  0
   -5.5362  -45.0094    9.1946 H   0  0  0  0  0  0  0  0  0  0  0  0
   -6.3944  -43.5602    7.3681 H   0  0  0  0  0  0  0  0  0  0  0  0
   -5.2548  -43.5445    5.1547 H   0  0  0  0  0  0  0  0  0  0  0  0
   -3.2525  -44.9730    4.7844 H   0  0  0  0  0  0  0  0  0  0  0  0
  1  2  2  0  0  0  0
  2  3  1  0  0  0  0
  2  4  1  0  0  0  0
  4 11  2  0  0  0  0
  4 22  1  0  0  0  0
  5  6  1  0  0  0  0
  5 10  1  0  0  0  0
  5 22  2  0  0  0  0
  6  7  2  0  0  0  0
  7  8  1  0  0  0  0
  8  9  2  0  0  0  0
  9 10  1  0  0  0  0
 10 11  1  0  0  0  0
 11 12  1  0  0  0  0
 12 13  1  0  0  0  0
 13 14  1  0  0  0  0
 14 15  1  0  0  0  0
 15 16  1  0  0  0  0
 16 17  2  0  0  0  0
 16 21  1  0  0  0  0
 17 18  1  0  0  0  0
 17 24  1  0  0  0  0
 18 19  2  0  0  0  0
 19 20  1  0  0  0  0
 20 21  2  0  0  0  0
 23 24  1  0  0  0  0
 24 25  1  0  0  0  0
 24 26  1  0  0  0  0
  3 27  1  0  0  0  0
  6 28  1  0  0  0  0
  7 29  1  0  0  0  0
  8 30  1  0  0  0  0
  9 31  1  0  0  0  0
 10 32  1  0  0  0  0
 12 33  1  0  0  0  0
 12 34  1  0  0  0  0
 13 35  1  0  0  0  0
 13 36  1  0  0  0  0
 14 37  1  0  0  0  0
 14 38  1  0  0  0  0
 18 39  1  0  0  0  0
 19 40  1  0  0  0  0
 20 41  1  0  0  0  0
 21 42  1  0  0  0  0
M  END
> <r_user_dG.exp>
-6.93940556519089

$$$$
29
  -OEChem-05162309453D
 Structure written by MMmdl.
 42 44  0     1  0  0  0  0  0999 V2000
    3.4235  -47.4990    6.3034 O   0  0  0  0  0  0  0  0  0  0  0  0
    3.0281  -48.6146    6.7306 C   0  0  0  0  0  0  0  0  0  0  0  0
    3.7777  -49.3670    7.3880 O   0  0  0  0  0  0  0  0  0  0  0  0
    1.6462  -49.0711    6.4354 C   0  0  0  0  0  0  0  0  0  0  0  0
   -0.0124  -50.6359    6.4318 C   0  0  3  0  0  0  0  0  0  0  0  0
   -0.8349  -51.7756    6.5605 C   0  0  0  0  0  0  0  0  0  0  0  0
   -2.1553  -51.7463    6.0659 C   0  0  0  0  0  0  0  0  0  0  0  0
   -2.6490  -50.5721    5.4633 C   0  0  0  0  0  0  0  0  0  0  0  0
   -1.8305  -49.4302    5.3533 C   0  0  0  0  0  0  0  0  0  0  0  0
   -0.4988  -49.4369    5.8254 C   0  0  0  0  0  0  0  0  0  0  0  0
    0.5621  -48.4620    5.8353 C   0  0  0  0  0  0  0  0  0  0  0  0
    0.4741  -47.0549    5.3074 C   0  0  0  0  0  0  0  0  0  0  0  0
    0.2593  -45.9878    6.3953 C   0  0  0  0  0  0  0  0  0  0  0  0
   -0.9490  -46.2558    7.3130 C   0  0  0  0  0  0  0  0  0  0  0  0
   -2.1030  -46.5044    6.5056 O   0  0  0  0  0  0  0  0  0  0  0  0
   -3.2262  -45.7691    6.7833 C   0  0  0  0  0  0  0  0  0  0  0  0
   -3.9083  -45.8174    8.0302 C   0  0  0  0  0  0  0  0  0  0  0  0
   -5.0388  -45.0029    8.2360 C   0  0  0  0  0  0  0  0  0  0  0  0
   -5.5258  -44.1802    7.2022 C   0  0  0  0  0  0  0  0  0  0  0  0
   -4.8795  -44.1671    5.9535 C   0  0  0  0  0  0  0  0  0  0  0  0
   -3.7380  -44.9715    5.7491 C   0  0  0  0  0  0  0  0  0  0  0  0
    1.2854  -50.3610    6.7961 N   0  0  0  0  0  0  0  0  0  0  0  0
   -2.4349  -46.1863    9.7809 F   0  0  0  0  0  0  0  0  0  0  0  0
   -3.4514  -46.7482    9.1429 C   0  0  0  0  0  0  0  0  0  0  0  0
   -4.4113  -46.9759   10.0447 F   0  0  0  0  0  0  0  0  0  0  0  0
   -3.0629  -47.9301    8.6622 F   0  0  0  0  0  0  0  0  0  0  0  0
    4.6292  -48.9578    7.4880 H   0  0  0  0  0  0  0  0  0  0  0  0
    0.3354  -50.9940    5.4516 H   0  0  0  0  0  0  0  0  0  0  0  0
   -0.4543  -52.6674    7.0363 H   0  0  0  0  0  0  0  0  0  0  0  0
   -2.7851  -52.6197    6.1486 H   0  0  0  0  0  0  0  0  0  0  0  0
   -3.6598  -50.5471    5.0838 H   0  0  0  0  0  0  0  0  0  0  0  0
   -2.2282  -48.5341    4.9001 H   0  0  0  0  0  0  0  0  0  0  0  0
    1.4108  -46.8252    4.7784 H   0  0  0  0  0  0  0  0  0  0  0  0
   -0.3679  -47.0028    4.6015 H   0  0  0  0  0  0  0  0  0  0  0  0
    1.1639  -45.9448    7.0197 H   0  0  0  0  0  0  0  0  0  0  0  0
    0.1084  -45.0168    5.9010 H   0  0  0  0  0  0  0  0  0  0  0  0
   -0.7449  -47.1333    7.9441 H   0  0  0  0  0  0  0  0  0  0  0  0
   -1.1283  -45.3784    7.9518 H   0  0  0  0  0  0  0  0  0  0  0  0
   -5.5362  -45.0094    9.1946 H   0  0  0  0  0  0  0  0  0  0  0  0
   -6.3944  -43.5602    7.3681 H   0  0  0  0  0  0  0  0  0  0  0  0
   -5.2548  -43.5445    5.1547 H   0  0  0  0  0  0  0  0  0  0  0  0
   -3.2525  -44.9730    4.7844 H   0  0  0  0  0  0  0  0  0  0  0  0
  1  2  2  0  0  0  0
  2  3  1  0  0  0  0
  2  4  1  0  0  0  0
  4 11  1  0  0  0  0
  4 22  2  0  0  0  0
  5  6  1  0  0  0  0
  5 10  1  0  0  0  0
  5 22  1  0  0  0  0
  6  7  2  0  0  0  0
  7  8  1  0  0  0  0
  8  9  2  0  0  0  0
  9 10  1  0  0  0  0
 10 11  2  0  0  0  0
 11 12  1  0  0  0  0
 12 13  1  0  0  0  0
 13 14  1  0  0  0  0
 14 15  1  0  0  0  0
 15 16  1  0  0  0  0
 16 17  2  0  0  0  0
 16 21  1  0  0  0  0
 17 18  1  0  0  0  0
 17 24  1  0  0  0  0
 18 19  2  0  0  0  0
 19 20  1  0  0  0  0
 20 21  2  0  0  0  0
 23 24  1  0  0  0  0
 24 25  1  0  0  0  0
 24 26  1  0  0  0  0
  3 27  1  0  0  0  0
  5 28  1  0  0  0  0
  6 29  1  0  0  0  0
  7 30  1  0  0  0  0
  8 31  1  0  0  0  0
  9 32  1  0  0  0  0
 12 33  1  0  0  0  0
 12 34  1  0  0  0  0
 13 35  1  0  0  0  0
 13 36  1  0  0  0  0
 14 37  1  0  0  0  0
 14 38  1  0  0  0  0
 18 39  1  0  0  0  0
 19 40  1  0  0  0  0
 20 41  1  0  0  0  0
 21 42  1  0  0  0  0
M  END
> <r_user_dG.exp>
-6.93940556519089

$$$$
29
  -OEChem-05162309453D
 Structure written by MMmdl.
 42 44  0     0  0  0  0  0  0999 V2000
    3.4235  -47.4990    6.3034 O   0  0  0  0  0  0  0  0  0  0  0  0
    3.0281  -48.6146    6.7306 C   0  0  0  0  0  0  0  0  0  0  0  0
    3.7777  -49.3670    7.3880 O   0  0  0  0  0  0  0  0  0  0  0  0
    1.6462  -49.0711    6.4354 C   0  0  0  0  0  0  0  0  0  0  0  0
   -0.0124  -50.6359    6.4318 C   0  0  0  0  0  0  0  0  0  0  0  0
   -0.8349  -51.7756    6.5605 C   0  0  0  0  0  0  0  0  0  0  0  0
   -2.1553  -51.7463    6.0659 C   0  0  0  0  0  0  0  0  0  0  0  0
   -2.6490  -50.5721    5.4633 C   0  0  0  0  0  0  0  0  0  0  0  0
   -1.8305  -49.4302    5.3533 C   0  0  0  0  0  0  0  0  0  0  0  0
   -0.4988  -49.4369    5.8254 C   0  0  0  0  0  0  0  0  0  0  0  0
    0.5621  -48.4620    5.8353 C   0  0  0  0  0  0  0  0  0  0  0  0
    0.4741  -47.0549    5.3074 C   0  0  0  0  0  0  0  0  0  0  0  0
    0.2593  -45.9878    6.3953 C   0  0  0  0  0  0  0  0  0  0  0  0
   -0.9490  -46.2558    7.3130 C   0  0  0  0  0  0  0  0  0  0  0  0
   -2.1030  -46.5044    6.5056 O   0  0  0  0  0  0  0  0  0  0  0  0
   -3.2262  -45.7691    6.7833 C   0  0  0  0  0  0  0  0  0  0  0  0
   -3.9083  -45.8174    8.0302 C   0  0  0  0  0  0  0  0  0  0  0  0
   -5.0388  -45.0029    8.2360 C   0  0  0  0  0  0  0  0  0  0  0  0
   -5.5258  -44.1802    7.2022 C   0  0  0  0  0  0  0  0  0  0  0  0
   -4.8795  -44.1671    5.9535 C   0  0  0  0  0  0  0  0  0  0  0  0
   -3.7380  -44.9715    5.7491 C   0  0  0  0  0  0  0  0  0  0  0  0
    1.2854  -50.3610    6.7961 N   0  0  0  0  0  0  0  0  0  0  0  0
   -2.4349  -46.1863    9.7809 F   0  0  0  0  0  0  0  0  0  0  0  0
   -3.4514  -46.7482    9.1429 C   0  0  0  0  0  0  0  0  0  0  0  0
   -4.4113  -46.9759   10.0447 F   0  0  0  0  0  0  0  0  0  0  0  0
   -3.0629  -47.9301    8.6622 F   0  0  0  0  0  0  0  0  0  0  0  0
    4.6292  -48.9578    7.4880 H   0  0  0  0  0  0  0  0  0  0  0  0
   -0.4543  -52.6674    7.0363 H   0  0  0  0  0  0  0  0  0  0  0  0
   -2.7851  -52.6197    6.1486 H   0  0  0  0  0  0  0  0  0  0  0  0
   -2.9505  -50.8444    4.4411 H   0  0  0  0  0  0  0  0  0  0  0  0
   -3.5363  -50.2705    6.0392 H   0  0  0  0  0  0  0  0  0  0  0  0
   -2.2282  -48.5341    4.9001 H   0  0  0  0  0  0  0  0  0  0  0  0
    1.4108  -46.8252    4.7784 H   0  0  0  0  0  0  0  0  0  0  0  0
   -0.3679  -47.0028    4.6015 H   0  0  0  0  0  0  0  0  0  0  0  0
    1.1639  -45.9448    7.0197 H   0  0  0  0  0  0  0  0  0  0  0  0
    0.1084  -45.0168    5.9010 H   0  0  0  0  0  0  0  0  0  0  0  0
   -0.7449  -47.1333    7.9441 H   0  0  0  0  0  0  0  0  0  0  0  0
   -1.1283  -45.3784    7.9518 H   0  0  0  0  0  0  0  0  0  0  0  0
   -5.5362  -45.0094    9.1946 H   0  0  0  0  0  0  0  0  0  0  0  0
   -6.3944  -43.5602    7.3681 H   0  0  0  0  0  0  0  0  0  0  0  0
   -5.2548  -43.5445    5.1547 H   0  0  0  0  0  0  0  0  0  0  0  0
   -3.2525  -44.9730    4.7844 H   0  0  0  0  0  0  0  0  0  0  0  0
  1  2  2  0  0  0  0
  2  3  1  0  0  0  0
  2  4  1  0  0  0  0
  4 11  2  0  0  0  0
  4 22  1  0  0  0  0
  5  6  1  0  0  0  0
  5 10  1  0  0  0  0
  5 22  2  0  0  0  0
  6  7  2  0  0  0  0
  7  8  1  0  0  0  0
  8  9  1  0  0  0  0
  9 10  2  0  0  0  0
 10 11  1  0  0  0  0
 11 12  1  0  0  0  0
 12 13  1  0  0  0  0
 13 14  1  0  0  0  0
 14 15  1  0  0  0  0
 15 16  1  0  0  0  0
 16 17  2  0  0  0  0
 16 21  1  0  0  0  0
 17 18  1  0  0  0  0
 17 24  1  0  0  0  0
 18 19  2  0  0  0  0
 19 20  1  0  0  0  0
 20 21  2  0  0  0  0
 23 24  1  0  0  0  0
 24 25  1  0  0  0  0
 24 26  1  0  0  0  0
  3 27  1  0  0  0  0
  6 28  1  0  0  0  0
  7 29  1  0  0  0  0
  8 30  1  0  0  0  0
  8 31  1  0  0  0  0
  9 32  1  0  0  0  0
 12 33  1  0  0  0  0
 12 34  1  0  0  0  0
 13 35  1  0  0  0  0
 13 36  1  0  0  0  0
 14 37  1  0  0  0  0
 14 38  1  0  0  0  0
 18 39  1  0  0  0  0
 19 40  1  0  0  0  0
 20 41  1  0  0  0  0
 21 42  1  0  0  0  0
M  END
> <r_user_dG.exp>
-6.93940556519089

$$$$
29
  -OEChem-05162309453D
 Structure written by MMmdl.
 42 44  0     0  0  0  0  0  0999 V2000
    3.4235  -47.4990    6.3034 O   0  0  0  0  0  0  0  0  0  0  0  0
    3.0281  -48.6146    6.7306 C   0  0  0  0  0  0  0  0  0  0  0  0
    3.7777  -49.3670    7.3880 O   0  0  0  0  0  0  0  0  0  0  0  0
    1.6462  -49.0711    6.4354 C   0  0  0  0  0  0  0  0  0  0  0  0
   -0.0124  -50.6359    6.4318 C   0  0  0  0  0  0  0  0  0  0  0  0
   -0.8349  -51.7756    6.5605 C   0  0  0  0  0  0  0  0  0  0  0  0
   -2.1553  -51.7463    6.0659 C   0  0  0  0  0  0  0  0  0  0  0  0
   -2.6490  -50.5721    5.4633 C   0  0  0  0  0  0  0  0  0  0  0  0
   -1.8305  -49.4302    5.3533 C   0  0  0  0  0  0  0  0  0  0  0  0
   -0.4988  -49.4369    5.8254 C   0  0  0  0  0  0  0  0  0  0  0  0
    0.5621  -48.4620    5.8353 C   0  0  0  0  0  0  0  0  0  0  0  0
    0.4741  -47.0549    5.3074 C   0  0  0  0  0  0  0  0  0  0  0  0
    0.2593  -45.9878    6.3953 C   0  0  0  0  0  0  0  0  0  0  0  0
   -0.9490  -46.2558    7.3130 C   0  0  0  0  0  0  0  0  0  0  0  0
   -2.1030  -46.5044    6.5056 O   0  0  0  0  0  0  0  0  0  0  0  0
   -3.2262  -45.7691    6.7833 C   0  0  0  0  0  0  0  0  0  0  0  0
   -3.9083  -45.8174    8.0302 C   0  0  0  0  0  0  0  0  0  0  0  0
   -5.0388  -45.0029    8.2360 C   0  0  0  0  0  0  0  0  0  0  0  0
   -5.5258  -44.1802    7.2022 C   0  0  0  0  0  0  0  0  0  0  0  0
   -4.8795  -44.1671    5.9535 C   0  0  0  0  0  0  0  0  0  0  0  0
   -3.7380  -44.9715    5.7491 C   0  0  0  0  0  0  0  0  0  0  0  0
    1.2854  -50.3610    6.7961 N   0  0  0  0  0  0  0  0  0  0  0  0
   -2.4349  -46.1863    9.7809 F   0  0  0  0  0  0  0  0  0  0  0  0
   -3.4514  -46.7482    9.1429 C   0  0  0  0  0  0  0  0  0  0  0  0
   -4.4113  -46.9759   10.0447 F   0  0  0  0  0  0  0  0  0  0  0  0
   -3.0629  -47.9301    8.6622 F   0  0  0  0  0  0  0  0  0  0  0  0
    4.6292  -48.9578    7.4880 H   0  0  0  0  0  0  0  0  0  0  0  0
   -0.4543  -52.6674    7.0363 H   0  0  0  0  0  0  0  0  0  0  0  0
   -2.2327  -52.5468    5.3155 H   0  0  0  0  0  0  0  0  0  0  0  0
   -2.8186  -51.9730    6.9136 H   0  0  0  0  0  0  0  0  0  0  0  0
   -3.6598  -50.5471    5.0838 H   0  0  0  0  0  0  0  0  0  0  0  0
   -2.2282  -48.5341    4.9001 H   0  0  0  0  0  0  0  0  0  0  0  0
    1.4108  -46.8252    4.7784 H   0  0  0  0  0  0  0  0  0  0  0  0
   -0.3679  -47.0028    4.6015 H   0  0  0  0  0  0  0  0  0  0  0  0
    1.1639  -45.9448    7.0197 H   0  0  0  0  0  0  0  0  0  0  0  0
    0.1084  -45.0168    5.9010 H   0  0  0  0  0  0  0  0  0  0  0  0
   -0.7449  -47.1333    7.9441 H   0  0  0  0  0  0  0  0  0  0  0  0
   -1.1283  -45.3784    7.9518 H   0  0  0  0  0  0  0  0  0  0  0  0
   -5.5362  -45.0094    9.1946 H   0  0  0  0  0  0  0  0  0  0  0  0
   -6.3944  -43.5602    7.3681 H   0  0  0  0  0  0  0  0  0  0  0  0
   -5.2548  -43.5445    5.1547 H   0  0  0  0  0  0  0  0  0  0  0  0
   -3.2525  -44.9730    4.7844 H   0  0  0  0  0  0  0  0  0  0  0  0
  1  2  2  0  0  0  0
  2  3  1  0  0  0  0
  2  4  1  0  0  0  0
  4 11  1  0  0  0  0
  4 22  2  0  0  0  0
  5  6  2  0  0  0  0
  5 10  1  0  0  0  0
  5 22  1  0  0  0  0
  6  7  1  0  0  0  0
  7  8  1  0  0  0  0
  8  9  2  0  0  0  0
  9 10  1  0  0  0  0
 10 11  2  0  0  0  0
 11 12  1  0  0  0  0
 12 13  1  0  0  0  0
 13 14  1  0  0  0  0
 14 15  1  0  0  0  0
 15 16  1  0  0  0  0
 16 17  2  0  0  0  0
 16 21  1  0  0  0  0
 17 18  1  0  0  0  0
 17 24  1  0  0  0  0
 18 19  2  0  0  0  0
 19 20  1  0  0  0  0
 20 21  2  0  0  0  0
 23 24  1  0  0  0  0
 24 25  1  0  0  0  0
 24 26  1  0  0  0  0
  3 27  1  0  0  0  0
  6 28  1  0  0  0  0
  7 29  1  0  0  0  0
  7 30  1  0  0  0  0
  8 31  1  0  0  0  0
  9 32  1  0  0  0  0
 12 33  1  0  0  0  0
 12 34  1  0  0  0  0
 13 35  1  0  0  0  0
 13 36  1  0  0  0  0
 14 37  1  0  0  0  0
 14 38  1  0  0  0  0
 18 39  1  0  0  0  0
 19 40  1  0  0  0  0
 20 41  1  0  0  0  0
 21 42  1  0  0  0  0
M  END
> <r_user_dG.exp>
-6.93940556519089

$$$$
29
  -OEChem-05162309453D
 Structure written by MMmdl.
 42 44  0     0  0  0  0  0  0999 V2000
    3.4235  -47.4990    6.3034 O   0  0  0  0  0  0  0  0  0  0  0  0
    3.0281  -48.6146    6.7306 C   0  0  0  0  0  0  0  0  0  0  0  0
    3.7777  -49.3670    7.3880 O   0  0  0  0  0  0  0  0  0  0  0  0
    1.6462  -49.0711    6.4354 C   0  0  0  0  0  0  0  0  0  0  0  0
   -0.0124  -50.6359    6.4318 C   0  0  0  0  0  0  0  0  0  0  0  0
   -0.8349  -51.7756    6.5605 C   0  0  0  0  0  0  0  0  0  0  0  0
   -2.1553  -51.7463    6.0659 C   0  0  0  0  0  0  0  0  0  0  0  0
   -2.6490  -50.5721    5.4633 C   0  0  0  0  0  0  0  0  0  0  0  0
   -1.8305  -49.4302    5.3533 C   0  0  0  0  0  0  0  0  0  0  0  0
   -0.4988  -49.4369    5.8254 C   0  0  0  0  0  0  0  0  0  0  0  0
    0.5621  -48.4620    5.8353 C   0  0  0  0  0  0  0  0  0  0  0  0
    0.4741  -47.0549    5.3074 C   0  0  0  0  0  0  0  0  0  0  0  0
    0.2593  -45.9878    6.3953 C   0  0  0  0  0  0  0  0  0  0  0  0
   -0.9490  -46.2558    7.3130 C   0  0  0  0  0  0  0  0  0  0  0  0
   -2.1030  -46.5044    6.5056 O   0  0  0  0  0  0  0  0  0  0  0  0
   -3.2262  -45.7691    6.7833 C   0  0  0  0  0  0  0  0  0  0  0  0
   -3.9083  -45.8174    8.0302 C   0  0  0  0  0  0  0  0  0  0  0  0
   -5.0388  -45.0029    8.2360 C   0  0  0  0  0  0  0  0  0  0  0  0
   -5.5258  -44.1802    7.2022 C   0  0  0  0  0  0  0  0  0  0  0  0
   -4.8795  -44.1671    5.9535 C   0  0  0  0  0  0  0  0  0  0  0  0
   -3.7380  -44.9715    5.7491 C   0  0  0  0  0  0  0  0  0  0  0  0
    1.2854  -50.3610    6.7961 N   0  0  0  0  0  0  0  0  0  0  0  0
   -2.4349  -46.1863    9.7809 F   0  0  0  0  0  0  0  0  0  0  0  0
   -3.4514  -46.7482    9.1429 C   0  0  0  0  0  0  0  0  0  0  0  0
   -4.4113  -46.9759   10.0447 F   0  0  0  0  0  0  0  0  0  0  0  0
   -3.0629  -47.9301    8.6622 F   0  0  0  0  0  0  0  0  0  0  0  0
    4.6292  -48.9578    7.4880 H   0  0  0  0  0  0  0  0  0  0  0  0
   -0.3200  -52.5999    6.0453 H   0  0  0  0  0  0  0  0  0  0  0  0
   -0.9022  -52.0001    7.6352 H   0  0  0  0  0  0  0  0  0  0  0  0
   -2.7851  -52.6197    6.1486 H   0  0  0  0  0  0  0  0  0  0  0  0
   -3.6598  -50.5471    5.0838 H   0  0  0  0  0  0  0  0  0  0  0  0
   -2.2282  -48.5341    4.9001 H   0  0  0  0  0  0  0  0  0  0  0  0
    1.4108  -46.8252    4.7784 H   0  0  0  0  0  0  0  0  0  0  0  0
   -0.3679  -47.0028    4.6015 H   0  0  0  0  0  0  0  0  0  0  0  0
    1.1639  -45.9448    7.0197 H   0  0  0  0  0  0  0  0  0  0  0  0
    0.1084  -45.0168    5.9010 H   0  0  0  0  0  0  0  0  0  0  0  0
   -0.7449  -47.1333    7.9441 H   0  0  0  0  0  0  0  0  0  0  0  0
   -1.1283  -45.3784    7.9518 H   0  0  0  0  0  0  0  0  0  0  0  0
   -5.5362  -45.0094    9.1946 H   0  0  0  0  0  0  0  0  0  0  0  0
   -6.3944  -43.5602    7.3681 H   0  0  0  0  0  0  0  0  0  0  0  0
   -5.2548  -43.5445    5.1547 H   0  0  0  0  0  0  0  0  0  0  0  0
   -3.2525  -44.9730    4.7844 H   0  0  0  0  0  0  0  0  0  0  0  0
  1  2  2  0  0  0  0
  2  3  1  0  0  0  0
  2  4  1  0  0  0  0
  4 11  2  0  0  0  0
  4 22  1  0  0  0  0
  5  6  1  0  0  0  0
  5 10  1  0  0  0  0
  5 22  2  0  0  0  0
  6  7  1  0  0  0  0
  7  8  2  0  0  0  0
  8  9  1  0  0  0  0
  9 10  2  0  0  0  0
 10 11  1  0  0  0  0
 11 12  1  0  0  0  0
 12 13  1  0  0  0  0
 13 14  1  0  0  0  0
 14 15  1  0  0  0  0
 15 16  1  0  0  0  0
 16 17  2  0  0  0  0
 16 21  1  0  0  0  0
 17 18  1  0  0  0  0
 17 24  1  0  0  0  0
 18 19  2  0  0  0  0
 19 20  1  0  0  0  0
 20 21  2  0  0  0  0
 23 24  1  0  0  0  0
 24 25  1  0  0  0  0
 24 26  1  0  0  0  0
  3 27  1  0  0  0  0
  6 28  1  0  0  0  0
  6 29  1  0  0  0  0
  7 30  1  0  0  0  0
  8 31  1  0  0  0  0
  9 32  1  0  0  0  0
 12 33  1  0  0  0  0
 12 34  1  0  0  0  0
 13 35  1  0  0  0  0
 13 36  1  0  0  0  0
 14 37  1  0  0  0  0
 14 38  1  0  0  0  0
 18 39  1  0  0  0  0
 19 40  1  0  0  0  0
 20 41  1  0  0  0  0
 21 42  1  0  0  0  0
M  END
> <r_user_dG.exp>
-6.93940556519089

$$$$
29
  -OEChem-05162309453D
 Structure written by MMmdl.
 42 44  0     0  0  0  0  0  0999 V2000
    3.4235  -47.4990    6.3034 O   0  0  0  0  0  0  0  0  0  0  0  0
    3.0281  -48.6146    6.7306 C   0  0  0  0  0  0  0  0  0  0  0  0
    3.7777  -49.3670    7.3880 O   0  0  0  0  0  0  0  0  0  0  0  0
    1.6462  -49.0711    6.4354 C   0  0  0  0  0  0  0  0  0  0  0  0
   -0.0124  -50.6359    6.4318 C   0  0  0  0  0  0  0  0  0  0  0  0
   -0.8349  -51.7756    6.5605 C   0  0  0  0  0  0  0  0  0  0  0  0
   -2.1553  -51.7463    6.0659 C   0  0  0  0  0  0  0  0  0  0  0  0
   -2.6490  -50.5721    5.4633 C   0  0  0  0  0  0  0  0  0  0  0  0
   -1.8305  -49.4302    5.3533 C   0  0  0  0  0  0  0  0  0  0  0  0
   -0.4988  -49.4369    5.8254 C   0  0  0  0  0  0  0  0  0  0  0  0
    0.5621  -48.4620    5.8353 C   0  0  0  0  0  0  0  0  0  0  0  0
    0.4741  -47.0549    5.3074 C   0  0  0  0  0  0  0  0  0  0  0  0
    0.2593  -45.9878    6.3953 C   0  0  0  0  0  0  0  0  0  0  0  0
   -0.9490  -46.2558    7.3130 C   0  0  0  0  0  0  0  0  0  0  0  0
   -2.1030  -46.5044    6.5056 O   0  0  0  0  0  0  0  0  0  0  0  0
   -3.2262  -45.7691    6.7833 C   0  0  0  0  0  0  0  0  0  0  0  0
   -3.9083  -45.8174    8.0302 C   0  0  0  0  0  0  0  0  0  0  0  0
   -5.0388  -45.0029    8.2360 C   0  0  0  0  0  0  0  0  0  0  0  0
   -5.5258  -44.1802    7.2022 C   0  0  0  0  0  0  0  0  0  0  0  0
   -4.8795  -44.1671    5.9535 C   0  0  0  0  0  0  0  0  0  0  0  0
   -3.7380  -44.9715    5.7491 C   0  0  0  0  0  0  0  0  0  0  0  0
    1.2854  -50.3610    6.7961 N   0  0  0  0  0  0  0  0  0  0  0  0
   -2.4349  -46.1863    9.7809 F   0  0  0  0  0  0  0  0  0  0  0  0
   -3.4514  -46.7482    9.1429 C   0  0  0  0  0  0  0  0  0  0  0  0
   -4.4113  -46.9759   10.0447 F   0  0  0  0  0  0  0  0  0  0  0  0
   -3.0629  -47.9301    8.6622 F   0  0  0  0  0  0  0  0  0  0  0  0
    4.6292  -48.9578    7.4880 H   0  0  0  0  0  0  0  0  0  0  0  0
   -0.4543  -52.6674    7.0363 H   0  0  0  0  0  0  0  0  0  0  0  0
   -2.7851  -52.6197    6.1486 H   0  0  0  0  0  0  0  0  0  0  0  0
   -3.6598  -50.5471    5.0838 H   0  0  0  0  0  0  0  0  0  0  0  0
   -1.7806  -49.1842    4.2823 H   0  0  0  0  0  0  0  0  0  0  0  0
   -2.3481  -48.6224    5.8913 H   0  0  0  0  0  0  0  0  0  0  0  0
    1.4108  -46.8252    4.7784 H   0  0  0  0  0  0  0  0  0  0  0  0
   -0.3679  -47.0028    4.6015 H   0  0  0  0  0  0  0  0  0  0  0  0
    1.1639  -45.9448    7.0197 H   0  0  0  0  0  0  0  0  0  0  0  0
    0.1084  -45.0168    5.9010 H   0  0  0  0  0  0  0  0  0  0  0  0
   -0.7449  -47.1333    7.9441 H   0  0  0  0  0  0  0  0  0  0  0  0
   -1.1283  -45.3784    7.9518 H   0  0  0  0  0  0  0  0  0  0  0  0
   -5.5362  -45.0094    9.1946 H   0  0  0  0  0  0  0  0  0  0  0  0
   -6.3944  -43.5602    7.3681 H   0  0  0  0  0  0  0  0  0  0  0  0
   -5.2548  -43.5445    5.1547 H   0  0  0  0  0  0  0  0  0  0  0  0
   -3.2525  -44.9730    4.7844 H   0  0  0  0  0  0  0  0  0  0  0  0
  1  2  2  0  0  0  0
  2  3  1  0  0  0  0
  2  4  1  0  0  0  0
  4 11  1  0  0  0  0
  4 22  2  0  0  0  0
  5  6  2  0  0  0  0
  5 10  1  0  0  0  0
  5 22  1  0  0  0  0
  6  7  1  0  0  0  0
  7  8  2  0  0  0  0
  8  9  1  0  0  0  0
  9 10  1  0  0  0  0
 10 11  2  0  0  0  0
 11 12  1  0  0  0  0
 12 13  1  0  0  0  0
 13 14  1  0  0  0  0
 14 15  1  0  0  0  0
 15 16  1  0  0  0  0
 16 17  2  0  0  0  0
 16 21  1  0  0  0  0
 17 18  1  0  0  0  0
 17 24  1  0  0  0  0
 18 19  2  0  0  0  0
 19 20  1  0  0  0  0
 20 21  2  0  0  0  0
 23 24  1  0  0  0  0
 24 25  1  0  0  0  0
 24 26  1  0  0  0  0
  3 27  1  0  0  0  0
  6 28  1  0  0  0  0
  7 29  1  0  0  0  0
  8 30  1  0  0  0  0
  9 31  1  0  0  0  0
  9 32  1  0  0  0  0
 12 33  1  0  0  0  0
 12 34  1  0  0  0  0
 13 35  1  0  0  0  0
 13 36  1  0  0  0  0
 14 37  1  0  0  0  0
 14 38  1  0  0  0  0
 18 39  1  0  0  0  0
 19 40  1  0  0  0  0
 20 41  1  0  0  0  0
 21 42  1  0  0  0  0
M  END
> <r_user_dG.exp>
-6.93940556519089

$$$$
29
  -OEChem-05162309453D
 Structure written by MMmdl.
 42 44  0     0  0  0  0  0  0999 V2000
    3.4235  -47.4990    6.3034 O   0  0  0  0  0  0  0  0  0  0  0  0
    3.0281  -48.6146    6.7306 C   0  0  0  0  0  0  0  0  0  0  0  0
    3.7777  -49.3670    7.3880 O   0  0  0  0  0  0  0  0  0  0  0  0
    1.6462  -49.0711    6.4354 C   0  0  0  0  0  0  0  0  0  0  0  0
   -0.0124  -50.6359    6.4318 C   0  0  0  0  0  0  0  0  0  0  0  0
   -0.8349  -51.7756    6.5605 C   0  0  0  0  0  0  0  0  0  0  0  0
   -2.1553  -51.7463    6.0659 C   0  0  0  0  0  0  0  0  0  0  0  0
   -2.6490  -50.5721    5.4633 C   0  0  0  0  0  0  0  0  0  0  0  0
   -1.8305  -49.4302    5.3533 C   0  0  0  0  0  0  0  0  0  0  0  0
   -0.4988  -49.4369    5.8254 C   0  0  0  0  0  0  0  0  0  0  0  0
    0.5621  -48.4620    5.8353 C   0  0  0  0  0  0  0  0  0  0  0  0
    0.4741  -47.0549    5.3074 C   0  0  0  0  0  0  0  0  0  0  0  0
    0.2593  -45.9878    6.3953 C   0  0  0  0  0  0  0  0  0  0  0  0
   -0.9490  -46.2558    7.3130 C   0  0  0  0  0  0  0  0  0  0  0  0
   -2.1030  -46.5044    6.5056 O   0  0  0  0  0  0  0  0  0  0  0  0
   -3.2262  -45.7691    6.7833 C   0  0  0  0  0  0  0  0  0  0  0  0
   -3.9083  -45.8174    8.0302 C   0  0  0  0  0  0  0  0  0  0  0  0
   -5.0388  -45.0029    8.2360 C   0  0  0  0  0  0  0  0  0  0  0  0
   -5.5258  -44.1802    7.2022 C   0  0  0  0  0  0  0  0  0  0  0  0
   -4.8795  -44.1671    5.9535 C   0  0  0  0  0  0  0  0  0  0  0  0
   -3.7380  -44.9715    5.7491 C   0  0  0  0  0  0  0  0  0  0  0  0
    1.2854  -50.3610    6.7961 N   0  0  0  0  0  0  0  0  0  0  0  0
   -2.4349  -46.1863    9.7809 F   0  0  0  0  0  0  0  0  0  0  0  0
   -3.4514  -46.7482    9.1429 C   0  0  0  0  0  0  0  0  0  0  0  0
   -4.4113  -46.9759   10.0447 F   0  0  0  0  0  0  0  0  0  0  0  0
   -3.0629  -47.9301    8.6622 F   0  0  0  0  0  0  0  0  0  0  0  0
    2.7189  -47.0731    5.8294 H   0  0  0  0  0  0  0  0  0  0  0  0
    3.3068  -50.1583    7.6218 H   0  0  0  0  0  0  0  0  0  0  0  0
   -0.4543  -52.6674    7.0363 H   0  0  0  0  0  0  0  0  0  0  0  0
   -2.7851  -52.6197    6.1486 H   0  0  0  0  0  0  0  0  0  0  0  0
   -3.6598  -50.5471    5.0838 H   0  0  0  0  0  0  0  0  0  0  0  0
   -2.2282  -48.5341    4.9001 H   0  0  0  0  0  0  0  0  0  0  0  0
    1.4108  -46.8252    4.7784 H   0  0  0  0  0  0  0  0  0  0  0  0
   -0.3679  -47.0028    4.6015 H   0  0  0  0  0  0  0  0  0  0  0  0
    1.1639  -45.9448    7.0197 H   0  0  0  0  0  0  0  0  0  0  0  0
    0.1084  -45.0168    5.9010 H   0  0  0  0  0  0  0  0  0  0  0  0
   -0.7449  -47.1333    7.9441 H   0  0  0  0  0  0  0  0  0  0  0  0
   -1.1283  -45.3784    7.9518 H   0  0  0  0  0  0  0  0  0  0  0  0
   -5.5362  -45.0094    9.1946 H   0  0  0  0  0  0  0  0  0  0  0  0
   -6.3944  -43.5602    7.3681 H   0  0  0  0  0  0  0  0  0  0  0  0
   -5.2548  -43.5445    5.1547 H   0  0  0  0  0  0  0  0  0  0  0  0
   -3.2525  -44.9730    4.7844 H   0  0  0  0  0  0  0  0  0  0  0  0
  1  2  1  0  0  0  0
  2  3  1  0  0  0  0
  2  4  2  0  0  0  0
  4 11  1  0  0  0  0
  4 22  1  0  0  0  0
  5  6  1  0  0  0  0
  5 10  1  0  0  0  0
  5 22  2  0  0  0  0
  6  7  2  0  0  0  0
  7  8  1  0  0  0  0
  8  9  2  0  0  0  0
  9 10  1  0  0  0  0
 10 11  2  0  0  0  0
 11 12  1  0  0  0  0
 12 13  1  0  0  0  0
 13 14  1  0  0  0  0
 14 15  1  0  0  0  0
 15 16  1  0  0  0  0
 16 17  2  0  0  0  0
 16 21  1  0  0  0  0
 17 18  1  0  0  0  0
 17 24  1  0  0  0  0
 18 19  2  0  0  0  0
 19 20  1  0  0  0  0
 20 21  2  0  0  0  0
 23 24  1  0  0  0  0
 24 25  1  0  0  0  0
 24 26  1  0  0  0  0
  1 27  1  0  0  0  0
  3 28  1  0  0  0  0
  6 29  1  0  0  0  0
  7 30  1  0  0  0  0
  8 31  1  0  0  0  0
  9 32  1  0  0  0  0
 12 33  1  0  0  0  0
 12 34  1  0  0  0  0
 13 35  1  0  0  0  0
 13 36  1  0  0  0  0
 14 37  1  0  0  0  0
 14 38  1  0  0  0  0
 18 39  1  0  0  0  0
 19 40  1  0  0  0  0
 20 41  1  0  0  0  0
 21 42  1  0  0  0  0
M  END
> <r_user_dG.exp>
-6.93940556519089

$$$$
