40
  -OEChem-05192314073D
 Structure written by MMmdl.
 50 53  0     0  0  0  0  0  0999 V2000
    4.0796  -49.9641    6.0933 O   0  0  0  0  0  0  0  0  0  0  0  0
    3.2341  -49.1036    6.4140 C   0  0  0  0  0  0  0  0  0  0  0  0
    3.5646  -47.9824    6.8520 O   0  0  0  0  0  0  0  0  0  0  0  0
    1.7941  -49.4291    6.2845 C   0  0  0  0  0  0  0  0  0  0  0  0
    0.0692  -50.8734    5.8701 C   0  0  0  0  0  0  0  0  0  0  0  0
   -0.7526  -51.9804    5.5646 C   0  0  0  0  0  0  0  0  0  0  0  0
   -2.1510  -51.8509    5.6383 C   0  0  0  0  0  0  0  0  0  0  0  0
   -2.7100  -50.6161    6.0102 C   0  0  0  0  0  0  0  0  0  0  0  0
   -1.8819  -49.5164    6.3113 C   0  0  0  0  0  0  0  0  0  0  0  0
   -0.4706  -49.6138    6.2528 C   0  0  0  0  0  0  0  0  0  0  0  0
    0.6346  -48.7012    6.4799 C   0  0  0  0  0  0  0  0  0  0  0  0
    0.5503  -47.2487    6.8757 C   0  0  0  0  0  0  0  0  0  0  0  0
   -0.4937  -46.4439    6.0758 C   0  0  0  0  0  0  0  0  0  0  0  0
   -1.4675  -45.6591    6.9570 C   0  0  0  0  0  0  0  0  0  0  0  0
   -2.0460  -46.5551    7.8997 O   0  0  0  0  0  0  0  0  0  0  0  0
   -3.1695  -46.1729    8.5970 C   0  0  0  0  0  0  0  0  0  0  0  0
   -3.9070  -44.9994    8.3258 C   0  0  0  0  0  0  0  0  0  0  0  0
   -5.0862  -44.7046    9.0367 C   0  0  0  0  0  0  0  0  0  0  0  0
   -5.5323  -45.5822   10.0518 C   0  0  0  0  0  0  0  0  0  0  0  0
   -4.7880  -46.7393   10.3421 C   0  0  0  0  0  0  0  0  0  0  0  0
   -3.6196  -47.0355    9.6144 C   0  0  0  0  0  0  0  0  0  0  0  0
    1.4413  -50.7114    5.8907 N   0  0  0  0  0  0  0  0  0  0  0  0
   -5.8559  -43.6367    8.6703 O   0  0  0  0  0  0  0  0  0  0  0  0
   -7.7006  -44.6618    5.0827 C   0  0  0  0  0  0  0  0  0  0  0  0
   -8.3132  -44.9852    6.3148 C   0  0  0  0  0  0  0  0  0  0  0  0
   -7.7288  -44.5868    7.5197 C   0  0  0  0  0  0  0  0  0  0  0  0
   -6.5230  -43.8614    7.5003 C   0  0  0  0  0  0  0  0  0  0  0  0
   -5.9538  -43.4664    6.2722 C   0  0  0  0  0  0  0  0  0  0  0  0
   -6.5349  -43.8779    5.0621 C   0  0  0  0  0  0  0  0  0  0  0  0
    4.5120  -47.9228    6.8884 H   0  0  0  0  0  0  0  0  0  0  0  0
   -0.3093  -52.9219    5.2758 H   0  0  0  0  0  0  0  0  0  0  0  0
   -2.7892  -52.6921    5.4113 H   0  0  0  0  0  0  0  0  0  0  0  0
   -3.7833  -50.5092    6.0657 H   0  0  0  0  0  0  0  0  0  0  0  0
   -2.3344  -48.5772    6.5933 H   0  0  0  0  0  0  0  0  0  0  0  0
    0.2864  -47.1949    7.9422 H   0  0  0  0  0  0  0  0  0  0  0  0
    1.5371  -46.7888    6.7185 H   0  0  0  0  0  0  0  0  0  0  0  0
    0.0381  -45.7330    5.4264 H   0  0  0  0  0  0  0  0  0  0  0  0
   -1.0726  -47.1444    5.4560 H   0  0  0  0  0  0  0  0  0  0  0  0
   -0.9274  -44.8607    7.4870 H   0  0  0  0  0  0  0  0  0  0  0  0
   -2.2576  -45.2157    6.3332 H   0  0  0  0  0  0  0  0  0  0  0  0
   -3.5616  -44.3183    7.5621 H   0  0  0  0  0  0  0  0  0  0  0  0
   -6.4374  -45.3655   10.5997 H   0  0  0  0  0  0  0  0  0  0  0  0
   -5.1144  -47.4046   11.1277 H   0  0  0  0  0  0  0  0  0  0  0  0
   -3.0631  -47.9334    9.8390 H   0  0  0  0  0  0  0  0  0  0  0  0
    2.0968  -51.4278    5.6520 H   0  0  0  0  0  0  0  0  0  0  0  0
   -8.1287  -45.0173    4.1571 H   0  0  0  0  0  0  0  0  0  0  0  0
   -9.2378  -45.5432    6.3249 H   0  0  0  0  0  0  0  0  0  0  0  0
   -8.1994  -44.8339    8.4599 H   0  0  0  0  0  0  0  0  0  0  0  0
   -5.0695  -42.8464    6.2624 H   0  0  0  0  0  0  0  0  0  0  0  0
   -6.0883  -43.5934    4.1208 H   0  0  0  0  0  0  0  0  0  0  0  0
  1  2  2  0  0  0  0
  2  3  1  0  0  0  0
  2  4  1  0  0  0  0
  4 11  2  0  0  0  0
  4 22  1  0  0  0  0
  5  6  2  0  0  0  0
  5 10  1  0  0  0  0
  5 22  1  0  0  0  0
  6  7  1  0  0  0  0
  7  8  2  0  0  0  0
  8  9  1  0  0  0  0
  9 10  2  0  0  0  0
 10 11  1  0  0  0  0
 11 12  1  0  0  0  0
 12 13  1  0  0  0  0
 13 14  1  0  0  0  0
 14 15  1  0  0  0  0
 15 16  1  0  0  0  0
 16 17  2  0  0  0  0
 16 21  1  0  0  0  0
 17 18  1  0  0  0  0
 18 19  2  0  0  0  0
 18 23  1  0  0  0  0
 19 20  1  0  0  0  0
 20 21  2  0  0  0  0
 23 27  1  0  0  0  0
 24 25  2  0  0  0  0
 24 29  1  0  0  0  0
 25 26  1  0  0  0  0
 26 27  2  0  0  0  0
 27 28  1  0  0  0  0
 28 29  2  0  0  0  0
  3 30  1  0  0  0  0
  6 31  1  0  0  0  0
  7 32  1  0  0  0  0
  8 33  1  0  0  0  0
  9 34  1  0  0  0  0
 12 35  1  0  0  0  0
 12 36  1  0  0  0  0
 13 37  1  0  0  0  0
 13 38  1  0  0  0  0
 14 39  1  0  0  0  0
 14 40  1  0  0  0  0
 17 41  1  0  0  0  0
 19 42  1  0  0  0  0
 20 43  1  0  0  0  0
 21 44  1  0  0  0  0
 22 45  1  0  0  0  0
 24 46  1  0  0  0  0
 25 47  1  0  0  0  0
 26 48  1  0  0  0  0
 28 49  1  0  0  0  0
 29 50  1  0  0  0  0
M  END
> <r_user_dG.exp>
-7.25302544244784

$$$$
40
  -OEChem-05192314073D
 Structure written by MMmdl.
 50 53  0     1  0  0  0  0  0999 V2000
    4.0796  -49.9641    6.0933 O   0  0  0  0  0  0  0  0  0  0  0  0
    3.2341  -49.1036    6.4140 C   0  0  0  0  0  0  0  0  0  0  0  0
    3.5646  -47.9824    6.8520 O   0  0  0  0  0  0  0  0  0  0  0  0
    1.7941  -49.4291    6.2845 C   0  0  0  0  0  0  0  0  0  0  0  0
    0.0692  -50.8734    5.8701 C   0  0  0  0  0  0  0  0  0  0  0  0
   -0.7526  -51.9804    5.5646 C   0  0  0  0  0  0  0  0  0  0  0  0
   -2.1510  -51.8509    5.6383 C   0  0  0  0  0  0  0  0  0  0  0  0
   -2.7100  -50.6161    6.0102 C   0  0  0  0  0  0  0  0  0  0  0  0
   -1.8819  -49.5164    6.3113 C   0  0  0  0  0  0  0  0  0  0  0  0
   -0.4706  -49.6138    6.2528 C   0  0  0  0  0  0  0  0  0  0  0  0
    0.6346  -48.7012    6.4799 C   0  0  3  0  0  0  0  0  0  0  0  0
    0.5503  -47.2487    6.8757 C   0  0  0  0  0  0  0  0  0  0  0  0
   -0.4937  -46.4439    6.0758 C   0  0  0  0  0  0  0  0  0  0  0  0
   -1.4675  -45.6591    6.9570 C   0  0  0  0  0  0  0  0  0  0  0  0
   -2.0460  -46.5551    7.8997 O   0  0  0  0  0  0  0  0  0  0  0  0
   -3.1695  -46.1729    8.5970 C   0  0  0  0  0  0  0  0  0  0  0  0
   -3.9070  -44.9994    8.3258 C   0  0  0  0  0  0  0  0  0  0  0  0
   -5.0862  -44.7046    9.0367 C   0  0  0  0  0  0  0  0  0  0  0  0
   -5.5323  -45.5822   10.0518 C   0  0  0  0  0  0  0  0  0  0  0  0
   -4.7880  -46.7393   10.3421 C   0  0  0  0  0  0  0  0  0  0  0  0
   -3.6196  -47.0355    9.6144 C   0  0  0  0  0  0  0  0  0  0  0  0
    1.4413  -50.7114    5.8907 N   0  0  0  0  0  0  0  0  0  0  0  0
   -5.8559  -43.6367    8.6703 O   0  0  0  0  0  0  0  0  0  0  0  0
   -7.7006  -44.6618    5.0827 C   0  0  0  0  0  0  0  0  0  0  0  0
   -8.3132  -44.9852    6.3148 C   0  0  0  0  0  0  0  0  0  0  0  0
   -7.7288  -44.5868    7.5197 C   0  0  0  0  0  0  0  0  0  0  0  0
   -6.5230  -43.8614    7.5003 C   0  0  0  0  0  0  0  0  0  0  0  0
   -5.9538  -43.4664    6.2722 C   0  0  0  0  0  0  0  0  0  0  0  0
   -6.5349  -43.8779    5.0621 C   0  0  0  0  0  0  0  0  0  0  0  0
    4.5120  -47.9228    6.8884 H   0  0  0  0  0  0  0  0  0  0  0  0
   -0.3093  -52.9219    5.2758 H   0  0  0  0  0  0  0  0  0  0  0  0
   -2.7892  -52.6921    5.4113 H   0  0  0  0  0  0  0  0  0  0  0  0
   -3.7833  -50.5092    6.0657 H   0  0  0  0  0  0  0  0  0  0  0  0
   -2.3344  -48.5772    6.5933 H   0  0  0  0  0  0  0  0  0  0  0  0
    0.6264  -48.4177    5.4171 H   0  0  0  0  0  0  0  0  0  0  0  0
    0.2864  -47.1949    7.9422 H   0  0  0  0  0  0  0  0  0  0  0  0
    1.5371  -46.7888    6.7185 H   0  0  0  0  0  0  0  0  0  0  0  0
    0.0381  -45.7330    5.4264 H   0  0  0  0  0  0  0  0  0  0  0  0
   -1.0726  -47.1444    5.4560 H   0  0  0  0  0  0  0  0  0  0  0  0
   -0.9274  -44.8607    7.4870 H   0  0  0  0  0  0  0  0  0  0  0  0
   -2.2576  -45.2157    6.3332 H   0  0  0  0  0  0  0  0  0  0  0  0
   -3.5616  -44.3183    7.5621 H   0  0  0  0  0  0  0  0  0  0  0  0
   -6.4374  -45.3655   10.5997 H   0  0  0  0  0  0  0  0  0  0  0  0
   -5.1144  -47.4046   11.1277 H   0  0  0  0  0  0  0  0  0  0  0  0
   -3.0631  -47.9334    9.8390 H   0  0  0  0  0  0  0  0  0  0  0  0
   -8.1287  -45.0173    4.1571 H   0  0  0  0  0  0  0  0  0  0  0  0
   -9.2378  -45.5432    6.3249 H   0  0  0  0  0  0  0  0  0  0  0  0
   -8.1994  -44.8339    8.4599 H   0  0  0  0  0  0  0  0  0  0  0  0
   -5.0695  -42.8464    6.2624 H   0  0  0  0  0  0  0  0  0  0  0  0
   -6.0883  -43.5934    4.1208 H   0  0  0  0  0  0  0  0  0  0  0  0
  1  2  2  0  0  0  0
  2  3  1  0  0  0  0
  2  4  1  0  0  0  0
  4 11  1  0  0  0  0
  4 22  2  0  0  0  0
  5  6  2  0  0  0  0
  5 10  1  0  0  0  0
  5 22  1  0  0  0  0
  6  7  1  0  0  0  0
  7  8  2  0  0  0  0
  8  9  1  0  0  0  0
  9 10  2  0  0  0  0
 10 11  1  0  0  0  0
 11 12  1  0  0  0  0
 12 13  1  0  0  0  0
 13 14  1  0  0  0  0
 14 15  1  0  0  0  0
 15 16  1  0  0  0  0
 16 17  2  0  0  0  0
 16 21  1  0  0  0  0
 17 18  1  0  0  0  0
 18 19  2  0  0  0  0
 18 23  1  0  0  0  0
 19 20  1  0  0  0  0
 20 21  2  0  0  0  0
 23 27  1  0  0  0  0
 24 25  2  0  0  0  0
 24 29  1  0  0  0  0
 25 26  1  0  0  0  0
 26 27  2  0  0  0  0
 27 28  1  0  0  0  0
 28 29  2  0  0  0  0
  3 30  1  0  0  0  0
  6 31  1  0  0  0  0
  7 32  1  0  0  0  0
  8 33  1  0  0  0  0
  9 34  1  0  0  0  0
 11 35  1  0  0  0  0
 12 36  1  0  0  0  0
 12 37  1  0  0  0  0
 13 38  1  0  0  0  0
 13 39  1  0  0  0  0
 14 40  1  0  0  0  0
 14 41  1  0  0  0  0
 17 42  1  0  0  0  0
 19 43  1  0  0  0  0
 20 44  1  0  0  0  0
 21 45  1  0  0  0  0
 24 46  1  0  0  0  0
 25 47  1  0  0  0  0
 26 48  1  0  0  0  0
 28 49  1  0  0  0  0
 29 50  1  0  0  0  0
M  END
> <r_user_dG.exp>
-7.25302544244784

$$$$
40
  -OEChem-05192314073D
 Structure written by MMmdl.
 50 53  0     1  0  0  0  0  0999 V2000
    4.0796  -49.9641    6.0933 O   0  0  0  0  0  0  0  0  0  0  0  0
    3.2341  -49.1036    6.4140 C   0  0  0  0  0  0  0  0  0  0  0  0
    3.5646  -47.9824    6.8520 O   0  0  0  0  0  0  0  0  0  0  0  0
    1.7941  -49.4291    6.2845 C   0  0  3  0  0  0  0  0  0  0  0  0
    0.0692  -50.8734    5.8701 C   0  0  0  0  0  0  0  0  0  0  0  0
   -0.7526  -51.9804    5.5646 C   0  0  0  0  0  0  0  0  0  0  0  0
   -2.1510  -51.8509    5.6383 C   0  0  0  0  0  0  0  0  0  0  0  0
   -2.7100  -50.6161    6.0102 C   0  0  0  0  0  0  0  0  0  0  0  0
   -1.8819  -49.5164    6.3113 C   0  0  0  0  0  0  0  0  0  0  0  0
   -0.4706  -49.6138    6.2528 C   0  0  0  0  0  0  0  0  0  0  0  0
    0.6346  -48.7012    6.4799 C   0  0  0  0  0  0  0  0  0  0  0  0
    0.5503  -47.2487    6.8757 C   0  0  0  0  0  0  0  0  0  0  0  0
   -0.4937  -46.4439    6.0758 C   0  0  0  0  0  0  0  0  0  0  0  0
   -1.4675  -45.6591    6.9570 C   0  0  0  0  0  0  0  0  0  0  0  0
   -2.0460  -46.5551    7.8997 O   0  0  0  0  0  0  0  0  0  0  0  0
   -3.1695  -46.1729    8.5970 C   0  0  0  0  0  0  0  0  0  0  0  0
   -3.9070  -44.9994    8.3258 C   0  0  0  0  0  0  0  0  0  0  0  0
   -5.0862  -44.7046    9.0367 C   0  0  0  0  0  0  0  0  0  0  0  0
   -5.5323  -45.5822   10.0518 C   0  0  0  0  0  0  0  0  0  0  0  0
   -4.7880  -46.7393   10.3421 C   0  0  0  0  0  0  0  0  0  0  0  0
   -3.6196  -47.0355    9.6144 C   0  0  0  0  0  0  0  0  0  0  0  0
    1.4413  -50.7114    5.8907 N   0  0  0  0  0  0  0  0  0  0  0  0
   -5.8559  -43.6367    8.6703 O   0  0  0  0  0  0  0  0  0  0  0  0
   -7.7006  -44.6618    5.0827 C   0  0  0  0  0  0  0  0  0  0  0  0
   -8.3132  -44.9852    6.3148 C   0  0  0  0  0  0  0  0  0  0  0  0
   -7.7288  -44.5868    7.5197 C   0  0  0  0  0  0  0  0  0  0  0  0
   -6.5230  -43.8614    7.5003 C   0  0  0  0  0  0  0  0  0  0  0  0
   -5.9538  -43.4664    6.2722 C   0  0  0  0  0  0  0  0  0  0  0  0
   -6.5349  -43.8779    5.0621 C   0  0  0  0  0  0  0  0  0  0  0  0
    4.5120  -47.9228    6.8884 H   0  0  0  0  0  0  0  0  0  0  0  0
    1.8166  -49.1115    5.2316 H   0  0  0  0  0  0  0  0  0  0  0  0
   -0.3093  -52.9219    5.2758 H   0  0  0  0  0  0  0  0  0  0  0  0
   -2.7892  -52.6921    5.4113 H   0  0  0  0  0  0  0  0  0  0  0  0
   -3.7833  -50.5092    6.0657 H   0  0  0  0  0  0  0  0  0  0  0  0
   -2.3344  -48.5772    6.5933 H   0  0  0  0  0  0  0  0  0  0  0  0
    0.2864  -47.1949    7.9422 H   0  0  0  0  0  0  0  0  0  0  0  0
    1.5371  -46.7888    6.7185 H   0  0  0  0  0  0  0  0  0  0  0  0
    0.0381  -45.7330    5.4264 H   0  0  0  0  0  0  0  0  0  0  0  0
   -1.0726  -47.1444    5.4560 H   0  0  0  0  0  0  0  0  0  0  0  0
   -0.9274  -44.8607    7.4870 H   0  0  0  0  0  0  0  0  0  0  0  0
   -2.2576  -45.2157    6.3332 H   0  0  0  0  0  0  0  0  0  0  0  0
   -3.5616  -44.3183    7.5621 H   0  0  0  0  0  0  0  0  0  0  0  0
   -6.4374  -45.3655   10.5997 H   0  0  0  0  0  0  0  0  0  0  0  0
   -5.1144  -47.4046   11.1277 H   0  0  0  0  0  0  0  0  0  0  0  0
   -3.0631  -47.9334    9.8390 H   0  0  0  0  0  0  0  0  0  0  0  0
   -8.1287  -45.0173    4.1571 H   0  0  0  0  0  0  0  0  0  0  0  0
   -9.2378  -45.5432    6.3249 H   0  0  0  0  0  0  0  0  0  0  0  0
   -8.1994  -44.8339    8.4599 H   0  0  0  0  0  0  0  0  0  0  0  0
   -5.0695  -42.8464    6.2624 H   0  0  0  0  0  0  0  0  0  0  0  0
   -6.0883  -43.5934    4.1208 H   0  0  0  0  0  0  0  0  0  0  0  0
  1  2  2  0  0  0  0
  2  3  1  0  0  0  0
  2  4  1  0  0  0  0
  4 11  1  0  0  0  0
  4 22  1  0  0  0  0
  5  6  1  0  0  0  0
  5 10  1  0  0  0  0
  5 22  2  0  0  0  0
  6  7  2  0  0  0  0
  7  8  1  0  0  0  0
  8  9  2  0  0  0  0
  9 10  1  0  0  0  0
 10 11  2  0  0  0  0
 11 12  1  0  0  0  0
 12 13  1  0  0  0  0
 13 14  1  0  0  0  0
 14 15  1  0  0  0  0
 15 16  1  0  0  0  0
 16 17  2  0  0  0  0
 16 21  1  0  0  0  0
 17 18  1  0  0  0  0
 18 19  2  0  0  0  0
 18 23  1  0  0  0  0
 19 20  1  0  0  0  0
 20 21  2  0  0  0  0
 23 27  1  0  0  0  0
 24 25  2  0  0  0  0
 24 29  1  0  0  0  0
 25 26  1  0  0  0  0
 26 27  2  0  0  0  0
 27 28  1  0  0  0  0
 28 29  2  0  0  0  0
  3 30  1  0  0  0  0
  4 31  1  0  0  0  0
  6 32  1  0  0  0  0
  7 33  1  0  0  0  0
  8 34  1  0  0  0  0
  9 35  1  0  0  0  0
 12 36  1  0  0  0  0
 12 37  1  0  0  0  0
 13 38  1  0  0  0  0
 13 39  1  0  0  0  0
 14 40  1  0  0  0  0
 14 41  1  0  0  0  0
 17 42  1  0  0  0  0
 19 43  1  0  0  0  0
 20 44  1  0  0  0  0
 21 45  1  0  0  0  0
 24 46  1  0  0  0  0
 25 47  1  0  0  0  0
 26 48  1  0  0  0  0
 28 49  1  0  0  0  0
 29 50  1  0  0  0  0
M  END
> <r_user_dG.exp>
-7.25302544244784

$$$$
40
  -OEChem-05192314073D
 Structure written by MMmdl.
 50 53  0     1  0  0  0  0  0999 V2000
    4.0796  -49.9641    6.0933 O   0  0  0  0  0  0  0  0  0  0  0  0
    3.2341  -49.1036    6.4140 C   0  0  0  0  0  0  0  0  0  0  0  0
    3.5646  -47.9824    6.8520 O   0  0  0  0  0  0  0  0  0  0  0  0
    1.7941  -49.4291    6.2845 C   0  0  0  0  0  0  0  0  0  0  0  0
    0.0692  -50.8734    5.8701 C   0  0  0  0  0  0  0  0  0  0  0  0
   -0.7526  -51.9804    5.5646 C   0  0  0  0  0  0  0  0  0  0  0  0
   -2.1510  -51.8509    5.6383 C   0  0  0  0  0  0  0  0  0  0  0  0
   -2.7100  -50.6161    6.0102 C   0  0  0  0  0  0  0  0  0  0  0  0
   -1.8819  -49.5164    6.3113 C   0  0  0  0  0  0  0  0  0  0  0  0
   -0.4706  -49.6138    6.2528 C   0  0  3  0  0  0  0  0  0  0  0  0
    0.6346  -48.7012    6.4799 C   0  0  0  0  0  0  0  0  0  0  0  0
    0.5503  -47.2487    6.8757 C   0  0  0  0  0  0  0  0  0  0  0  0
   -0.4937  -46.4439    6.0758 C   0  0  0  0  0  0  0  0  0  0  0  0
   -1.4675  -45.6591    6.9570 C   0  0  0  0  0  0  0  0  0  0  0  0
   -2.0460  -46.5551    7.8997 O   0  0  0  0  0  0  0  0  0  0  0  0
   -3.1695  -46.1729    8.5970 C   0  0  0  0  0  0  0  0  0  0  0  0
   -3.9070  -44.9994    8.3258 C   0  0  0  0  0  0  0  0  0  0  0  0
   -5.0862  -44.7046    9.0367 C   0  0  0  0  0  0  0  0  0  0  0  0
   -5.5323  -45.5822   10.0518 C   0  0  0  0  0  0  0  0  0  0  0  0
   -4.7880  -46.7393   10.3421 C   0  0  0  0  0  0  0  0  0  0  0  0
   -3.6196  -47.0355    9.6144 C   0  0  0  0  0  0  0  0  0  0  0  0
    1.4413  -50.7114    5.8907 N   0  0  0  0  0  0  0  0  0  0  0  0
   -5.8559  -43.6367    8.6703 O   0  0  0  0  0  0  0  0  0  0  0  0
   -7.7006  -44.6618    5.0827 C   0  0  0  0  0  0  0  0  0  0  0  0
   -8.3132  -44.9852    6.3148 C   0  0  0  0  0  0  0  0  0  0  0  0
   -7.7288  -44.5868    7.5197 C   0  0  0  0  0  0  0  0  0  0  0  0
   -6.5230  -43.8614    7.5003 C   0  0  0  0  0  0  0  0  0  0  0  0
   -5.9538  -43.4664    6.2722 C   0  0  0  0  0  0  0  0  0  0  0  0
   -6.5349  -43.8779    5.0621 C   0  0  0  0  0  0  0  0  0  0  0  0
    4.5120  -47.9228    6.8884 H   0  0  0  0  0  0  0  0  0  0  0  0
   -0.3093  -52.9219    5.2758 H   0  0  0  0  0  0  0  0  0  0  0  0
   -2.7892  -52.6921    5.4113 H   0  0  0  0  0  0  0  0  0  0  0  0
   -3.7833  -50.5092    6.0657 H   0  0  0  0  0  0  0  0  0  0  0  0
   -2.3344  -48.5772    6.5933 H   0  0  0  0  0  0  0  0  0  0  0  0
   -0.4430  -49.9177    7.3096 H   0  0  0  0  0  0  0  0  0  0  0  0
    0.2864  -47.1949    7.9422 H   0  0  0  0  0  0  0  0  0  0  0  0
    1.5371  -46.7888    6.7185 H   0  0  0  0  0  0  0  0  0  0  0  0
    0.0381  -45.7330    5.4264 H   0  0  0  0  0  0  0  0  0  0  0  0
   -1.0726  -47.1444    5.4560 H   0  0  0  0  0  0  0  0  0  0  0  0
   -0.9274  -44.8607    7.4870 H   0  0  0  0  0  0  0  0  0  0  0  0
   -2.2576  -45.2157    6.3332 H   0  0  0  0  0  0  0  0  0  0  0  0
   -3.5616  -44.3183    7.5621 H   0  0  0  0  0  0  0  0  0  0  0  0
   -6.4374  -45.3655   10.5997 H   0  0  0  0  0  0  0  0  0  0  0  0
   -5.1144  -47.4046   11.1277 H   0  0  0  0  0  0  0  0  0  0  0  0
   -3.0631  -47.9334    9.8390 H   0  0  0  0  0  0  0  0  0  0  0  0
   -8.1287  -45.0173    4.1571 H   0  0  0  0  0  0  0  0  0  0  0  0
   -9.2378  -45.5432    6.3249 H   0  0  0  0  0  0  0  0  0  0  0  0
   -8.1994  -44.8339    8.4599 H   0  0  0  0  0  0  0  0  0  0  0  0
   -5.0695  -42.8464    6.2624 H   0  0  0  0  0  0  0  0  0  0  0  0
   -6.0883  -43.5934    4.1208 H   0  0  0  0  0  0  0  0  0  0  0  0
  1  2  2  0  0  0  0
  2  3  1  0  0  0  0
  2  4  1  0  0  0  0
  4 11  2  0  0  0  0
  4 22  1  0  0  0  0
  5  6  1  0  0  0  0
  5 10  1  0  0  0  0
  5 22  2  0  0  0  0
  6  7  2  0  0  0  0
  7  8  1  0  0  0  0
  8  9  2  0  0  0  0
  9 10  1  0  0  0  0
 10 11  1  0  0  0  0
 11 12  1  0  0  0  0
 12 13  1  0  0  0  0
 13 14  1  0  0  0  0
 14 15  1  0  0  0  0
 15 16  1  0  0  0  0
 16 17  2  0  0  0  0
 16 21  1  0  0  0  0
 17 18  1  0  0  0  0
 18 19  2  0  0  0  0
 18 23  1  0  0  0  0
 19 20  1  0  0  0  0
 20 21  2  0  0  0  0
 23 27  1  0  0  0  0
 24 25  2  0  0  0  0
 24 29  1  0  0  0  0
 25 26  1  0  0  0  0
 26 27  2  0  0  0  0
 27 28  1  0  0  0  0
 28 29  2  0  0  0  0
  3 30  1  0  0  0  0
  6 31  1  0  0  0  0
  7 32  1  0  0  0  0
  8 33  1  0  0  0  0
  9 34  1  0  0  0  0
 10 35  1  0  0  0  0
 12 36  1  0  0  0  0
 12 37  1  0  0  0  0
 13 38  1  0  0  0  0
 13 39  1  0  0  0  0
 14 40  1  0  0  0  0
 14 41  1  0  0  0  0
 17 42  1  0  0  0  0
 19 43  1  0  0  0  0
 20 44  1  0  0  0  0
 21 45  1  0  0  0  0
 24 46  1  0  0  0  0
 25 47  1  0  0  0  0
 26 48  1  0  0  0  0
 28 49  1  0  0  0  0
 29 50  1  0  0  0  0
M  END
> <r_user_dG.exp>
-7.25302544244784

$$$$
40
  -OEChem-05192314073D
 Structure written by MMmdl.
 50 53  0     1  0  0  0  0  0999 V2000
    4.0796  -49.9641    6.0933 O   0  0  0  0  0  0  0  0  0  0  0  0
    3.2341  -49.1036    6.4140 C   0  0  0  0  0  0  0  0  0  0  0  0
    3.5646  -47.9824    6.8520 O   0  0  0  0  0  0  0  0  0  0  0  0
    1.7941  -49.4291    6.2845 C   0  0  0  0  0  0  0  0  0  0  0  0
    0.0692  -50.8734    5.8701 C   0  0  3  0  0  0  0  0  0  0  0  0
   -0.7526  -51.9804    5.5646 C   0  0  0  0  0  0  0  0  0  0  0  0
   -2.1510  -51.8509    5.6383 C   0  0  0  0  0  0  0  0  0  0  0  0
   -2.7100  -50.6161    6.0102 C   0  0  0  0  0  0  0  0  0  0  0  0
   -1.8819  -49.5164    6.3113 C   0  0  0  0  0  0  0  0  0  0  0  0
   -0.4706  -49.6138    6.2528 C   0  0  0  0  0  0  0  0  0  0  0  0
    0.6346  -48.7012    6.4799 C   0  0  0  0  0  0  0  0  0  0  0  0
    0.5503  -47.2487    6.8757 C   0  0  0  0  0  0  0  0  0  0  0  0
   -0.4937  -46.4439    6.0758 C   0  0  0  0  0  0  0  0  0  0  0  0
   -1.4675  -45.6591    6.9570 C   0  0  0  0  0  0  0  0  0  0  0  0
   -2.0460  -46.5551    7.8997 O   0  0  0  0  0  0  0  0  0  0  0  0
   -3.1695  -46.1729    8.5970 C   0  0  0  0  0  0  0  0  0  0  0  0
   -3.9070  -44.9994    8.3258 C   0  0  0  0  0  0  0  0  0  0  0  0
   -5.0862  -44.7046    9.0367 C   0  0  0  0  0  0  0  0  0  0  0  0
   -5.5323  -45.5822   10.0518 C   0  0  0  0  0  0  0  0  0  0  0  0
   -4.7880  -46.7393   10.3421 C   0  0  0  0  0  0  0  0  0  0  0  0
   -3.6196  -47.0355    9.6144 C   0  0  0  0  0  0  0  0  0  0  0  0
    1.4413  -50.7114    5.8907 N   0  0  0  0  0  0  0  0  0  0  0  0
   -5.8559  -43.6367    8.6703 O   0  0  0  0  0  0  0  0  0  0  0  0
   -7.7006  -44.6618    5.0827 C   0  0  0  0  0  0  0  0  0  0  0  0
   -8.3132  -44.9852    6.3148 C   0  0  0  0  0  0  0  0  0  0  0  0
   -7.7288  -44.5868    7.5197 C   0  0  0  0  0  0  0  0  0  0  0  0
   -6.5230  -43.8614    7.5003 C   0  0  0  0  0  0  0  0  0  0  0  0
   -5.9538  -43.4664    6.2722 C   0  0  0  0  0  0  0  0  0  0  0  0
   -6.5349  -43.8779    5.0621 C   0  0  0  0  0  0  0  0  0  0  0  0
    4.5120  -47.9228    6.8884 H   0  0  0  0  0  0  0  0  0  0  0  0
    0.0470  -50.5639    4.8148 H   0  0  0  0  0  0  0  0  0  0  0  0
   -0.3093  -52.9219    5.2758 H   0  0  0  0  0  0  0  0  0  0  0  0
   -2.7892  -52.6921    5.4113 H   0  0  0  0  0  0  0  0  0  0  0  0
   -3.7833  -50.5092    6.0657 H   0  0  0  0  0  0  0  0  0  0  0  0
   -2.3344  -48.5772    6.5933 H   0  0  0  0  0  0  0  0  0  0  0  0
    0.2864  -47.1949    7.9422 H   0  0  0  0  0  0  0  0  0  0  0  0
    1.5371  -46.7888    6.7185 H   0  0  0  0  0  0  0  0  0  0  0  0
    0.0381  -45.7330    5.4264 H   0  0  0  0  0  0  0  0  0  0  0  0
   -1.0726  -47.1444    5.4560 H   0  0  0  0  0  0  0  0  0  0  0  0
   -0.9274  -44.8607    7.4870 H   0  0  0  0  0  0  0  0  0  0  0  0
   -2.2576  -45.2157    6.3332 H   0  0  0  0  0  0  0  0  0  0  0  0
   -3.5616  -44.3183    7.5621 H   0  0  0  0  0  0  0  0  0  0  0  0
   -6.4374  -45.3655   10.5997 H   0  0  0  0  0  0  0  0  0  0  0  0
   -5.1144  -47.4046   11.1277 H   0  0  0  0  0  0  0  0  0  0  0  0
   -3.0631  -47.9334    9.8390 H   0  0  0  0  0  0  0  0  0  0  0  0
   -8.1287  -45.0173    4.1571 H   0  0  0  0  0  0  0  0  0  0  0  0
   -9.2378  -45.5432    6.3249 H   0  0  0  0  0  0  0  0  0  0  0  0
   -8.1994  -44.8339    8.4599 H   0  0  0  0  0  0  0  0  0  0  0  0
   -5.0695  -42.8464    6.2624 H   0  0  0  0  0  0  0  0  0  0  0  0
   -6.0883  -43.5934    4.1208 H   0  0  0  0  0  0  0  0  0  0  0  0
  1  2  2  0  0  0  0
  2  3  1  0  0  0  0
  2  4  1  0  0  0  0
  4 11  1  0  0  0  0
  4 22  2  0  0  0  0
  5  6  1  0  0  0  0
  5 10  1  0  0  0  0
  5 22  1  0  0  0  0
  6  7  2  0  0  0  0
  7  8  1  0  0  0  0
  8  9  2  0  0  0  0
  9 10  1  0  0  0  0
 10 11  2  0  0  0  0
 11 12  1  0  0  0  0
 12 13  1  0  0  0  0
 13 14  1  0  0  0  0
 14 15  1  0  0  0  0
 15 16  1  0  0  0  0
 16 17  2  0  0  0  0
 16 21  1  0  0  0  0
 17 18  1  0  0  0  0
 18 19  2  0  0  0  0
 18 23  1  0  0  0  0
 19 20  1  0  0  0  0
 20 21  2  0  0  0  0
 23 27  1  0  0  0  0
 24 25  2  0  0  0  0
 24 29  1  0  0  0  0
 25 26  1  0  0  0  0
 26 27  2  0  0  0  0
 27 28  1  0  0  0  0
 28 29  2  0  0  0  0
  3 30  1  0  0  0  0
  5 31  1  0  0  0  0
  6 32  1  0  0  0  0
  7 33  1  0  0  0  0
  8 34  1  0  0  0  0
  9 35  1  0  0  0  0
 12 36  1  0  0  0  0
 12 37  1  0  0  0  0
 13 38  1  0  0  0  0
 13 39  1  0  0  0  0
 14 40  1  0  0  0  0
 14 41  1  0  0  0  0
 17 42  1  0  0  0  0
 19 43  1  0  0  0  0
 20 44  1  0  0  0  0
 21 45  1  0  0  0  0
 24 46  1  0  0  0  0
 25 47  1  0  0  0  0
 26 48  1  0  0  0  0
 28 49  1  0  0  0  0
 29 50  1  0  0  0  0
M  END
> <r_user_dG.exp>
-7.25302544244784

$$$$
40
  -OEChem-05192314073D
 Structure written by MMmdl.
 50 53  0     0  0  0  0  0  0999 V2000
    4.0796  -49.9641    6.0933 O   0  0  0  0  0  0  0  0  0  0  0  0
    3.2341  -49.1036    6.4140 C   0  0  0  0  0  0  0  0  0  0  0  0
    3.5646  -47.9824    6.8520 O   0  0  0  0  0  0  0  0  0  0  0  0
    1.7941  -49.4291    6.2845 C   0  0  0  0  0  0  0  0  0  0  0  0
    0.0692  -50.8734    5.8701 C   0  0  0  0  0  0  0  0  0  0  0  0
   -0.7526  -51.9804    5.5646 C   0  0  0  0  0  0  0  0  0  0  0  0
   -2.1510  -51.8509    5.6383 C   0  0  0  0  0  0  0  0  0  0  0  0
   -2.7100  -50.6161    6.0102 C   0  0  0  0  0  0  0  0  0  0  0  0
   -1.8819  -49.5164    6.3113 C   0  0  0  0  0  0  0  0  0  0  0  0
   -0.4706  -49.6138    6.2528 C   0  0  0  0  0  0  0  0  0  0  0  0
    0.6346  -48.7012    6.4799 C   0  0  0  0  0  0  0  0  0  0  0  0
    0.5503  -47.2487    6.8757 C   0  0  0  0  0  0  0  0  0  0  0  0
   -0.4937  -46.4439    6.0758 C   0  0  0  0  0  0  0  0  0  0  0  0
   -1.4675  -45.6591    6.9570 C   0  0  0  0  0  0  0  0  0  0  0  0
   -2.0460  -46.5551    7.8997 O   0  0  0  0  0  0  0  0  0  0  0  0
   -3.1695  -46.1729    8.5970 C   0  0  0  0  0  0  0  0  0  0  0  0
   -3.9070  -44.9994    8.3258 C   0  0  0  0  0  0  0  0  0  0  0  0
   -5.0862  -44.7046    9.0367 C   0  0  0  0  0  0  0  0  0  0  0  0
   -5.5323  -45.5822   10.0518 C   0  0  0  0  0  0  0  0  0  0  0  0
   -4.7880  -46.7393   10.3421 C   0  0  0  0  0  0  0  0  0  0  0  0
   -3.6196  -47.0355    9.6144 C   0  0  0  0  0  0  0  0  0  0  0  0
    1.4413  -50.7114    5.8907 N   0  0  0  0  0  0  0  0  0  0  0  0
   -5.8559  -43.6367    8.6703 O   0  0  0  0  0  0  0  0  0  0  0  0
   -7.7006  -44.6618    5.0827 C   0  0  0  0  0  0  0  0  0  0  0  0
   -8.3132  -44.9852    6.3148 C   0  0  0  0  0  0  0  0  0  0  0  0
   -7.7288  -44.5868    7.5197 C   0  0  0  0  0  0  0  0  0  0  0  0
   -6.5230  -43.8614    7.5003 C   0  0  0  0  0  0  0  0  0  0  0  0
   -5.9538  -43.4664    6.2722 C   0  0  0  0  0  0  0  0  0  0  0  0
   -6.5349  -43.8779    5.0621 C   0  0  0  0  0  0  0  0  0  0  0  0
    4.5120  -47.9228    6.8884 H   0  0  0  0  0  0  0  0  0  0  0  0
   -0.3093  -52.9219    5.2758 H   0  0  0  0  0  0  0  0  0  0  0  0
   -2.7892  -52.6921    5.4113 H   0  0  0  0  0  0  0  0  0  0  0  0
   -3.3607  -50.3024    5.1806 H   0  0  0  0  0  0  0  0  0  0  0  0
   -3.3215  -50.8041    6.9050 H   0  0  0  0  0  0  0  0  0  0  0  0
   -2.3344  -48.5772    6.5933 H   0  0  0  0  0  0  0  0  0  0  0  0
    0.2864  -47.1949    7.9422 H   0  0  0  0  0  0  0  0  0  0  0  0
    1.5371  -46.7888    6.7185 H   0  0  0  0  0  0  0  0  0  0  0  0
    0.0381  -45.7330    5.4264 H   0  0  0  0  0  0  0  0  0  0  0  0
   -1.0726  -47.1444    5.4560 H   0  0  0  0  0  0  0  0  0  0  0  0
   -0.9274  -44.8607    7.4870 H   0  0  0  0  0  0  0  0  0  0  0  0
   -2.2576  -45.2157    6.3332 H   0  0  0  0  0  0  0  0  0  0  0  0
   -3.5616  -44.3183    7.5621 H   0  0  0  0  0  0  0  0  0  0  0  0
   -6.4374  -45.3655   10.5997 H   0  0  0  0  0  0  0  0  0  0  0  0
   -5.1144  -47.4046   11.1277 H   0  0  0  0  0  0  0  0  0  0  0  0
   -3.0631  -47.9334    9.8390 H   0  0  0  0  0  0  0  0  0  0  0  0
   -8.1287  -45.0173    4.1571 H   0  0  0  0  0  0  0  0  0  0  0  0
   -9.2378  -45.5432    6.3249 H   0  0  0  0  0  0  0  0  0  0  0  0
   -8.1994  -44.8339    8.4599 H   0  0  0  0  0  0  0  0  0  0  0  0
   -5.0695  -42.8464    6.2624 H   0  0  0  0  0  0  0  0  0  0  0  0
   -6.0883  -43.5934    4.1208 H   0  0  0  0  0  0  0  0  0  0  0  0
  1  2  2  0  0  0  0
  2  3  1  0  0  0  0
  2  4  1  0  0  0  0
  4 11  2  0  0  0  0
  4 22  1  0  0  0  0
  5  6  1  0  0  0  0
  5 10  1  0  0  0  0
  5 22  2  0  0  0  0
  6  7  2  0  0  0  0
  7  8  1  0  0  0  0
  8  9  1  0  0  0  0
  9 10  2  0  0  0  0
 10 11  1  0  0  0  0
 11 12  1  0  0  0  0
 12 13  1  0  0  0  0
 13 14  1  0  0  0  0
 14 15  1  0  0  0  0
 15 16  1  0  0  0  0
 16 17  2  0  0  0  0
 16 21  1  0  0  0  0
 17 18  1  0  0  0  0
 18 19  2  0  0  0  0
 18 23  1  0  0  0  0
 19 20  1  0  0  0  0
 20 21  2  0  0  0  0
 23 27  1  0  0  0  0
 24 25  2  0  0  0  0
 24 29  1  0  0  0  0
 25 26  1  0  0  0  0
 26 27  2  0  0  0  0
 27 28  1  0  0  0  0
 28 29  2  0  0  0  0
  3 30  1  0  0  0  0
  6 31  1  0  0  0  0
  7 32  1  0  0  0  0
  8 33  1  0  0  0  0
  8 34  1  0  0  0  0
  9 35  1  0  0  0  0
 12 36  1  0  0  0  0
 12 37  1  0  0  0  0
 13 38  1  0  0  0  0
 13 39  1  0  0  0  0
 14 40  1  0  0  0  0
 14 41  1  0  0  0  0
 17 42  1  0  0  0  0
 19 43  1  0  0  0  0
 20 44  1  0  0  0  0
 21 45  1  0  0  0  0
 24 46  1  0  0  0  0
 25 47  1  0  0  0  0
 26 48  1  0  0  0  0
 28 49  1  0  0  0  0
 29 50  1  0  0  0  0
M  END
> <r_user_dG.exp>
-7.25302544244784

$$$$
40
  -OEChem-05192314073D
 Structure written by MMmdl.
 50 53  0     0  0  0  0  0  0999 V2000
    4.0796  -49.9641    6.0933 O   0  0  0  0  0  0  0  0  0  0  0  0
    3.2341  -49.1036    6.4140 C   0  0  0  0  0  0  0  0  0  0  0  0
    3.5646  -47.9824    6.8520 O   0  0  0  0  0  0  0  0  0  0  0  0
    1.7941  -49.4291    6.2845 C   0  0  0  0  0  0  0  0  0  0  0  0
    0.0692  -50.8734    5.8701 C   0  0  0  0  0  0  0  0  0  0  0  0
   -0.7526  -51.9804    5.5646 C   0  0  0  0  0  0  0  0  0  0  0  0
   -2.1510  -51.8509    5.6383 C   0  0  0  0  0  0  0  0  0  0  0  0
   -2.7100  -50.6161    6.0102 C   0  0  0  0  0  0  0  0  0  0  0  0
   -1.8819  -49.5164    6.3113 C   0  0  0  0  0  0  0  0  0  0  0  0
   -0.4706  -49.6138    6.2528 C   0  0  0  0  0  0  0  0  0  0  0  0
    0.6346  -48.7012    6.4799 C   0  0  0  0  0  0  0  0  0  0  0  0
    0.5503  -47.2487    6.8757 C   0  0  0  0  0  0  0  0  0  0  0  0
   -0.4937  -46.4439    6.0758 C   0  0  0  0  0  0  0  0  0  0  0  0
   -1.4675  -45.6591    6.9570 C   0  0  0  0  0  0  0  0  0  0  0  0
   -2.0460  -46.5551    7.8997 O   0  0  0  0  0  0  0  0  0  0  0  0
   -3.1695  -46.1729    8.5970 C   0  0  0  0  0  0  0  0  0  0  0  0
   -3.9070  -44.9994    8.3258 C   0  0  0  0  0  0  0  0  0  0  0  0
   -5.0862  -44.7046    9.0367 C   0  0  0  0  0  0  0  0  0  0  0  0
   -5.5323  -45.5822   10.0518 C   0  0  0  0  0  0  0  0  0  0  0  0
   -4.7880  -46.7393   10.3421 C   0  0  0  0  0  0  0  0  0  0  0  0
   -3.6196  -47.0355    9.6144 C   0  0  0  0  0  0  0  0  0  0  0  0
    1.4413  -50.7114    5.8907 N   0  0  0  0  0  0  0  0  0  0  0  0
   -5.8559  -43.6367    8.6703 O   0  0  0  0  0  0  0  0  0  0  0  0
   -7.7006  -44.6618    5.0827 C   0  0  0  0  0  0  0  0  0  0  0  0
   -8.3132  -44.9852    6.3148 C   0  0  0  0  0  0  0  0  0  0  0  0
   -7.7288  -44.5868    7.5197 C   0  0  0  0  0  0  0  0  0  0  0  0
   -6.5230  -43.8614    7.5003 C   0  0  0  0  0  0  0  0  0  0  0  0
   -5.9538  -43.4664    6.2722 C   0  0  0  0  0  0  0  0  0  0  0  0
   -6.5349  -43.8779    5.0621 C   0  0  0  0  0  0  0  0  0  0  0  0
    4.5120  -47.9228    6.8884 H   0  0  0  0  0  0  0  0  0  0  0  0
   -0.3093  -52.9219    5.2758 H   0  0  0  0  0  0  0  0  0  0  0  0
   -2.5486  -52.0959    4.6424 H   0  0  0  0  0  0  0  0  0  0  0  0
   -2.5039  -52.5952    6.3673 H   0  0  0  0  0  0  0  0  0  0  0  0
   -3.7833  -50.5092    6.0657 H   0  0  0  0  0  0  0  0  0  0  0  0
   -2.3344  -48.5772    6.5933 H   0  0  0  0  0  0  0  0  0  0  0  0
    0.2864  -47.1949    7.9422 H   0  0  0  0  0  0  0  0  0  0  0  0
    1.5371  -46.7888    6.7185 H   0  0  0  0  0  0  0  0  0  0  0  0
    0.0381  -45.7330    5.4264 H   0  0  0  0  0  0  0  0  0  0  0  0
   -1.0726  -47.1444    5.4560 H   0  0  0  0  0  0  0  0  0  0  0  0
   -0.9274  -44.8607    7.4870 H   0  0  0  0  0  0  0  0  0  0  0  0
   -2.2576  -45.2157    6.3332 H   0  0  0  0  0  0  0  0  0  0  0  0
   -3.5616  -44.3183    7.5621 H   0  0  0  0  0  0  0  0  0  0  0  0
   -6.4374  -45.3655   10.5997 H   0  0  0  0  0  0  0  0  0  0  0  0
   -5.1144  -47.4046   11.1277 H   0  0  0  0  0  0  0  0  0  0  0  0
   -3.0631  -47.9334    9.8390 H   0  0  0  0  0  0  0  0  0  0  0  0
   -8.1287  -45.0173    4.1571 H   0  0  0  0  0  0  0  0  0  0  0  0
   -9.2378  -45.5432    6.3249 H   0  0  0  0  0  0  0  0  0  0  0  0
   -8.1994  -44.8339    8.4599 H   0  0  0  0  0  0  0  0  0  0  0  0
   -5.0695  -42.8464    6.2624 H   0  0  0  0  0  0  0  0  0  0  0  0
   -6.0883  -43.5934    4.1208 H   0  0  0  0  0  0  0  0  0  0  0  0
  1  2  2  0  0  0  0
  2  3  1  0  0  0  0
  2  4  1  0  0  0  0
  4 11  1  0  0  0  0
  4 22  2  0  0  0  0
  5  6  2  0  0  0  0
  5 10  1  0  0  0  0
  5 22  1  0  0  0  0
  6  7  1  0  0  0  0
  7  8  1  0  0  0  0
  8  9  2  0  0  0  0
  9 10  1  0  0  0  0
 10 11  2  0  0  0  0
 11 12  1  0  0  0  0
 12 13  1  0  0  0  0
 13 14  1  0  0  0  0
 14 15  1  0  0  0  0
 15 16  1  0  0  0  0
 16 17  2  0  0  0  0
 16 21  1  0  0  0  0
 17 18  1  0  0  0  0
 18 19  2  0  0  0  0
 18 23  1  0  0  0  0
 19 20  1  0  0  0  0
 20 21  2  0  0  0  0
 23 27  1  0  0  0  0
 24 25  2  0  0  0  0
 24 29  1  0  0  0  0
 25 26  1  0  0  0  0
 26 27  2  0  0  0  0
 27 28  1  0  0  0  0
 28 29  2  0  0  0  0
  3 30  1  0  0  0  0
  6 31  1  0  0  0  0
  7 32  1  0  0  0  0
  7 33  1  0  0  0  0
  8 34  1  0  0  0  0
  9 35  1  0  0  0  0
 12 36  1  0  0  0  0
 12 37  1  0  0  0  0
 13 38  1  0  0  0  0
 13 39  1  0  0  0  0
 14 40  1  0  0  0  0
 14 41  1  0  0  0  0
 17 42  1  0  0  0  0
 19 43  1  0  0  0  0
 20 44  1  0  0  0  0
 21 45  1  0  0  0  0
 24 46  1  0  0  0  0
 25 47  1  0  0  0  0
 26 48  1  0  0  0  0
 28 49  1  0  0  0  0
 29 50  1  0  0  0  0
M  END
> <r_user_dG.exp>
-7.25302544244784

$$$$
40
  -OEChem-05192314073D
 Structure written by MMmdl.
 50 53  0     0  0  0  0  0  0999 V2000
    4.0796  -49.9641    6.0933 O   0  0  0  0  0  0  0  0  0  0  0  0
    3.2341  -49.1036    6.4140 C   0  0  0  0  0  0  0  0  0  0  0  0
    3.5646  -47.9824    6.8520 O   0  0  0  0  0  0  0  0  0  0  0  0
    1.7941  -49.4291    6.2845 C   0  0  0  0  0  0  0  0  0  0  0  0
    0.0692  -50.8734    5.8701 C   0  0  0  0  0  0  0  0  0  0  0  0
   -0.7526  -51.9804    5.5646 C   0  0  0  0  0  0  0  0  0  0  0  0
   -2.1510  -51.8509    5.6383 C   0  0  0  0  0  0  0  0  0  0  0  0
   -2.7100  -50.6161    6.0102 C   0  0  0  0  0  0  0  0  0  0  0  0
   -1.8819  -49.5164    6.3113 C   0  0  0  0  0  0  0  0  0  0  0  0
   -0.4706  -49.6138    6.2528 C   0  0  0  0  0  0  0  0  0  0  0  0
    0.6346  -48.7012    6.4799 C   0  0  0  0  0  0  0  0  0  0  0  0
    0.5503  -47.2487    6.8757 C   0  0  0  0  0  0  0  0  0  0  0  0
   -0.4937  -46.4439    6.0758 C   0  0  0  0  0  0  0  0  0  0  0  0
   -1.4675  -45.6591    6.9570 C   0  0  0  0  0  0  0  0  0  0  0  0
   -2.0460  -46.5551    7.8997 O   0  0  0  0  0  0  0  0  0  0  0  0
   -3.1695  -46.1729    8.5970 C   0  0  0  0  0  0  0  0  0  0  0  0
   -3.9070  -44.9994    8.3258 C   0  0  0  0  0  0  0  0  0  0  0  0
   -5.0862  -44.7046    9.0367 C   0  0  0  0  0  0  0  0  0  0  0  0
   -5.5323  -45.5822   10.0518 C   0  0  0  0  0  0  0  0  0  0  0  0
   -4.7880  -46.7393   10.3421 C   0  0  0  0  0  0  0  0  0  0  0  0
   -3.6196  -47.0355    9.6144 C   0  0  0  0  0  0  0  0  0  0  0  0
    1.4413  -50.7114    5.8907 N   0  0  0  0  0  0  0  0  0  0  0  0
   -5.8559  -43.6367    8.6703 O   0  0  0  0  0  0  0  0  0  0  0  0
   -7.7006  -44.6618    5.0827 C   0  0  0  0  0  0  0  0  0  0  0  0
   -8.3132  -44.9852    6.3148 C   0  0  0  0  0  0  0  0  0  0  0  0
   -7.7288  -44.5868    7.5197 C   0  0  0  0  0  0  0  0  0  0  0  0
   -6.5230  -43.8614    7.5003 C   0  0  0  0  0  0  0  0  0  0  0  0
   -5.9538  -43.4664    6.2722 C   0  0  0  0  0  0  0  0  0  0  0  0
   -6.5349  -43.8779    5.0621 C   0  0  0  0  0  0  0  0  0  0  0  0
    4.5120  -47.9228    6.8884 H   0  0  0  0  0  0  0  0  0  0  0  0
   -0.5138  -52.2801    4.5335 H   0  0  0  0  0  0  0  0  0  0  0  0
   -0.4701  -52.7880    6.2560 H   0  0  0  0  0  0  0  0  0  0  0  0
   -2.7892  -52.6921    5.4113 H   0  0  0  0  0  0  0  0  0  0  0  0
   -3.7833  -50.5092    6.0657 H   0  0  0  0  0  0  0  0  0  0  0  0
   -2.3344  -48.5772    6.5933 H   0  0  0  0  0  0  0  0  0  0  0  0
    0.2864  -47.1949    7.9422 H   0  0  0  0  0  0  0  0  0  0  0  0
    1.5371  -46.7888    6.7185 H   0  0  0  0  0  0  0  0  0  0  0  0
    0.0381  -45.7330    5.4264 H   0  0  0  0  0  0  0  0  0  0  0  0
   -1.0726  -47.1444    5.4560 H   0  0  0  0  0  0  0  0  0  0  0  0
   -0.9274  -44.8607    7.4870 H   0  0  0  0  0  0  0  0  0  0  0  0
   -2.2576  -45.2157    6.3332 H   0  0  0  0  0  0  0  0  0  0  0  0
   -3.5616  -44.3183    7.5621 H   0  0  0  0  0  0  0  0  0  0  0  0
   -6.4374  -45.3655   10.5997 H   0  0  0  0  0  0  0  0  0  0  0  0
   -5.1144  -47.4046   11.1277 H   0  0  0  0  0  0  0  0  0  0  0  0
   -3.0631  -47.9334    9.8390 H   0  0  0  0  0  0  0  0  0  0  0  0
   -8.1287  -45.0173    4.1571 H   0  0  0  0  0  0  0  0  0  0  0  0
   -9.2378  -45.5432    6.3249 H   0  0  0  0  0  0  0  0  0  0  0  0
   -8.1994  -44.8339    8.4599 H   0  0  0  0  0  0  0  0  0  0  0  0
   -5.0695  -42.8464    6.2624 H   0  0  0  0  0  0  0  0  0  0  0  0
   -6.0883  -43.5934    4.1208 H   0  0  0  0  0  0  0  0  0  0  0  0
  1  2  2  0  0  0  0
  2  3  1  0  0  0  0
  2  4  1  0  0  0  0
  4 11  2  0  0  0  0
  4 22  1  0  0  0  0
  5  6  1  0  0  0  0
  5 10  1  0  0  0  0
  5 22  2  0  0  0  0
  6  7  1  0  0  0  0
  7  8  2  0  0  0  0
  8  9  1  0  0  0  0
  9 10  2  0  0  0  0
 10 11  1  0  0  0  0
 11 12  1  0  0  0  0
 12 13  1  0  0  0  0
 13 14  1  0  0  0  0
 14 15  1  0  0  0  0
 15 16  1  0  0  0  0
 16 17  2  0  0  0  0
 16 21  1  0  0  0  0
 17 18  1  0  0  0  0
 18 19  2  0  0  0  0
 18 23  1  0  0  0  0
 19 20  1  0  0  0  0
 20 21  2  0  0  0  0
 23 27  1  0  0  0  0
 24 25  2  0  0  0  0
 24 29  1  0  0  0  0
 25 26  1  0  0  0  0
 26 27  2  0  0  0  0
 27 28  1  0  0  0  0
 28 29  2  0  0  0  0
  3 30  1  0  0  0  0
  6 31  1  0  0  0  0
  6 32  1  0  0  0  0
  7 33  1  0  0  0  0
  8 34  1  0  0  0  0
  9 35  1  0  0  0  0
 12 36  1  0  0  0  0
 12 37  1  0  0  0  0
 13 38  1  0  0  0  0
 13 39  1  0  0  0  0
 14 40  1  0  0  0  0
 14 41  1  0  0  0  0
 17 42  1  0  0  0  0
 19 43  1  0  0  0  0
 20 44  1  0  0  0  0
 21 45  1  0  0  0  0
 24 46  1  0  0  0  0
 25 47  1  0  0  0  0
 26 48  1  0  0  0  0
 28 49  1  0  0  0  0
 29 50  1  0  0  0  0
M  END
> <r_user_dG.exp>
-7.25302544244784

$$$$
40
  -OEChem-05192314073D
 Structure written by MMmdl.
 50 53  0     0  0  0  0  0  0999 V2000
    4.0796  -49.9641    6.0933 O   0  0  0  0  0  0  0  0  0  0  0  0
    3.2341  -49.1036    6.4140 C   0  0  0  0  0  0  0  0  0  0  0  0
    3.5646  -47.9824    6.8520 O   0  0  0  0  0  0  0  0  0  0  0  0
    1.7941  -49.4291    6.2845 C   0  0  0  0  0  0  0  0  0  0  0  0
    0.0692  -50.8734    5.8701 C   0  0  0  0  0  0  0  0  0  0  0  0
   -0.7526  -51.9804    5.5646 C   0  0  0  0  0  0  0  0  0  0  0  0
   -2.1510  -51.8509    5.6383 C   0  0  0  0  0  0  0  0  0  0  0  0
   -2.7100  -50.6161    6.0102 C   0  0  0  0  0  0  0  0  0  0  0  0
   -1.8819  -49.5164    6.3113 C   0  0  0  0  0  0  0  0  0  0  0  0
   -0.4706  -49.6138    6.2528 C   0  0  0  0  0  0  0  0  0  0  0  0
    0.6346  -48.7012    6.4799 C   0  0  0  0  0  0  0  0  0  0  0  0
    0.5503  -47.2487    6.8757 C   0  0  0  0  0  0  0  0  0  0  0  0
   -0.4937  -46.4439    6.0758 C   0  0  0  0  0  0  0  0  0  0  0  0
   -1.4675  -45.6591    6.9570 C   0  0  0  0  0  0  0  0  0  0  0  0
   -2.0460  -46.5551    7.8997 O   0  0  0  0  0  0  0  0  0  0  0  0
   -3.1695  -46.1729    8.5970 C   0  0  0  0  0  0  0  0  0  0  0  0
   -3.9070  -44.9994    8.3258 C   0  0  0  0  0  0  0  0  0  0  0  0
   -5.0862  -44.7046    9.0367 C   0  0  0  0  0  0  0  0  0  0  0  0
   -5.5323  -45.5822   10.0518 C   0  0  0  0  0  0  0  0  0  0  0  0
   -4.7880  -46.7393   10.3421 C   0  0  0  0  0  0  0  0  0  0  0  0
   -3.6196  -47.0355    9.6144 C   0  0  0  0  0  0  0  0  0  0  0  0
    1.4413  -50.7114    5.8907 N   0  0  0  0  0  0  0  0  0  0  0  0
   -5.8559  -43.6367    8.6703 O   0  0  0  0  0  0  0  0  0  0  0  0
   -7.7006  -44.6618    5.0827 C   0  0  0  0  0  0  0  0  0  0  0  0
   -8.3132  -44.9852    6.3148 C   0  0  0  0  0  0  0  0  0  0  0  0
   -7.7288  -44.5868    7.5197 C   0  0  0  0  0  0  0  0  0  0  0  0
   -6.5230  -43.8614    7.5003 C   0  0  0  0  0  0  0  0  0  0  0  0
   -5.9538  -43.4664    6.2722 C   0  0  0  0  0  0  0  0  0  0  0  0
   -6.5349  -43.8779    5.0621 C   0  0  0  0  0  0  0  0  0  0  0  0
    4.5120  -47.9228    6.8884 H   0  0  0  0  0  0  0  0  0  0  0  0
   -0.3093  -52.9219    5.2758 H   0  0  0  0  0  0  0  0  0  0  0  0
   -2.7892  -52.6921    5.4113 H   0  0  0  0  0  0  0  0  0  0  0  0
   -3.7833  -50.5092    6.0657 H   0  0  0  0  0  0  0  0  0  0  0  0
   -2.1665  -48.7140    5.6147 H   0  0  0  0  0  0  0  0  0  0  0  0
   -2.1295  -49.2142    7.3396 H   0  0  0  0  0  0  0  0  0  0  0  0
    0.2864  -47.1949    7.9422 H   0  0  0  0  0  0  0  0  0  0  0  0
    1.5371  -46.7888    6.7185 H   0  0  0  0  0  0  0  0  0  0  0  0
    0.0381  -45.7330    5.4264 H   0  0  0  0  0  0  0  0  0  0  0  0
   -1.0726  -47.1444    5.4560 H   0  0  0  0  0  0  0  0  0  0  0  0
   -0.9274  -44.8607    7.4870 H   0  0  0  0  0  0  0  0  0  0  0  0
   -2.2576  -45.2157    6.3332 H   0  0  0  0  0  0  0  0  0  0  0  0
   -3.5616  -44.3183    7.5621 H   0  0  0  0  0  0  0  0  0  0  0  0
   -6.4374  -45.3655   10.5997 H   0  0  0  0  0  0  0  0  0  0  0  0
   -5.1144  -47.4046   11.1277 H   0  0  0  0  0  0  0  0  0  0  0  0
   -3.0631  -47.9334    9.8390 H   0  0  0  0  0  0  0  0  0  0  0  0
   -8.1287  -45.0173    4.1571 H   0  0  0  0  0  0  0  0  0  0  0  0
   -9.2378  -45.5432    6.3249 H   0  0  0  0  0  0  0  0  0  0  0  0
   -8.1994  -44.8339    8.4599 H   0  0  0  0  0  0  0  0  0  0  0  0
   -5.0695  -42.8464    6.2624 H   0  0  0  0  0  0  0  0  0  0  0  0
   -6.0883  -43.5934    4.1208 H   0  0  0  0  0  0  0  0  0  0  0  0
  1  2  2  0  0  0  0
  2  3  1  0  0  0  0
  2  4  1  0  0  0  0
  4 11  1  0  0  0  0
  4 22  2  0  0  0  0
  5  6  2  0  0  0  0
  5 10  1  0  0  0  0
  5 22  1  0  0  0  0
  6  7  1  0  0  0  0
  7  8  2  0  0  0  0
  8  9  1  0  0  0  0
  9 10  1  0  0  0  0
 10 11  2  0  0  0  0
 11 12  1  0  0  0  0
 12 13  1  0  0  0  0
 13 14  1  0  0  0  0
 14 15  1  0  0  0  0
 15 16  1  0  0  0  0
 16 17  2  0  0  0  0
 16 21  1  0  0  0  0
 17 18  1  0  0  0  0
 18 19  2  0  0  0  0
 18 23  1  0  0  0  0
 19 20  1  0  0  0  0
 20 21  2  0  0  0  0
 23 27  1  0  0  0  0
 24 25  2  0  0  0  0
 24 29  1  0  0  0  0
 25 26  1  0  0  0  0
 26 27  2  0  0  0  0
 27 28  1  0  0  0  0
 28 29  2  0  0  0  0
  3 30  1  0  0  0  0
  6 31  1  0  0  0  0
  7 32  1  0  0  0  0
  8 33  1  0  0  0  0
  9 34  1  0  0  0  0
  9 35  1  0  0  0  0
 12 36  1  0  0  0  0
 12 37  1  0  0  0  0
 13 38  1  0  0  0  0
 13 39  1  0  0  0  0
 14 40  1  0  0  0  0
 14 41  1  0  0  0  0
 17 42  1  0  0  0  0
 19 43  1  0  0  0  0
 20 44  1  0  0  0  0
 21 45  1  0  0  0  0
 24 46  1  0  0  0  0
 25 47  1  0  0  0  0
 26 48  1  0  0  0  0
 28 49  1  0  0  0  0
 29 50  1  0  0  0  0
M  END
> <r_user_dG.exp>
-7.25302544244784

$$$$
40
  -OEChem-05192314073D
 Structure written by MMmdl.
 50 53  0     0  0  0  0  0  0999 V2000
    4.0796  -49.9641    6.0933 O   0  0  0  0  0  0  0  0  0  0  0  0
    3.2341  -49.1036    6.4140 C   0  0  0  0  0  0  0  0  0  0  0  0
    3.5646  -47.9824    6.8520 O   0  0  0  0  0  0  0  0  0  0  0  0
    1.7941  -49.4291    6.2845 C   0  0  0  0  0  0  0  0  0  0  0  0
    0.0692  -50.8734    5.8701 C   0  0  0  0  0  0  0  0  0  0  0  0
   -0.7526  -51.9804    5.5646 C   0  0  0  0  0  0  0  0  0  0  0  0
   -2.1510  -51.8509    5.6383 C   0  0  0  0  0  0  0  0  0  0  0  0
   -2.7100  -50.6161    6.0102 C   0  0  0  0  0  0  0  0  0  0  0  0
   -1.8819  -49.5164    6.3113 C   0  0  0  0  0  0  0  0  0  0  0  0
   -0.4706  -49.6138    6.2528 C   0  0  0  0  0  0  0  0  0  0  0  0
    0.6346  -48.7012    6.4799 C   0  0  0  0  0  0  0  0  0  0  0  0
    0.5503  -47.2487    6.8757 C   0  0  0  0  0  0  0  0  0  0  0  0
   -0.4937  -46.4439    6.0758 C   0  0  0  0  0  0  0  0  0  0  0  0
   -1.4675  -45.6591    6.9570 C   0  0  0  0  0  0  0  0  0  0  0  0
   -2.0460  -46.5551    7.8997 O   0  0  0  0  0  0  0  0  0  0  0  0
   -3.1695  -46.1729    8.5970 C   0  0  0  0  0  0  0  0  0  0  0  0
   -3.9070  -44.9994    8.3258 C   0  0  0  0  0  0  0  0  0  0  0  0
   -5.0862  -44.7046    9.0367 C   0  0  0  0  0  0  0  0  0  0  0  0
   -5.5323  -45.5822   10.0518 C   0  0  0  0  0  0  0  0  0  0  0  0
   -4.7880  -46.7393   10.3421 C   0  0  0  0  0  0  0  0  0  0  0  0
   -3.6196  -47.0355    9.6144 C   0  0  0  0  0  0  0  0  0  0  0  0
    1.4413  -50.7114    5.8907 N   0  0  0  0  0  0  0  0  0  0  0  0
   -5.8559  -43.6367    8.6703 O   0  0  0  0  0  0  0  0  0  0  0  0
   -7.7006  -44.6618    5.0827 C   0  0  0  0  0  0  0  0  0  0  0  0
   -8.3132  -44.9852    6.3148 C   0  0  0  0  0  0  0  0  0  0  0  0
   -7.7288  -44.5868    7.5197 C   0  0  0  0  0  0  0  0  0  0  0  0
   -6.5230  -43.8614    7.5003 C   0  0  0  0  0  0  0  0  0  0  0  0
   -5.9538  -43.4664    6.2722 C   0  0  0  0  0  0  0  0  0  0  0  0
   -6.5349  -43.8779    5.0621 C   0  0  0  0  0  0  0  0  0  0  0  0
    3.6357  -50.7454    5.7851 H   0  0  0  0  0  0  0  0  0  0  0  0
    2.7851  -47.4723    7.0382 H   0  0  0  0  0  0  0  0  0  0  0  0
   -0.3093  -52.9219    5.2758 H   0  0  0  0  0  0  0  0  0  0  0  0
   -2.7892  -52.6921    5.4113 H   0  0  0  0  0  0  0  0  0  0  0  0
   -3.7833  -50.5092    6.0657 H   0  0  0  0  0  0  0  0  0  0  0  0
   -2.3344  -48.5772    6.5933 H   0  0  0  0  0  0  0  0  0  0  0  0
    0.2864  -47.1949    7.9422 H   0  0  0  0  0  0  0  0  0  0  0  0
    1.5371  -46.7888    6.7185 H   0  0  0  0  0  0  0  0  0  0  0  0
    0.0381  -45.7330    5.4264 H   0  0  0  0  0  0  0  0  0  0  0  0
   -1.0726  -47.1444    5.4560 H   0  0  0  0  0  0  0  0  0  0  0  0
   -0.9274  -44.8607    7.4870 H   0  0  0  0  0  0  0  0  0  0  0  0
   -2.2576  -45.2157    6.3332 H   0  0  0  0  0  0  0  0  0  0  0  0
   -3.5616  -44.3183    7.5621 H   0  0  0  0  0  0  0  0  0  0  0  0
   -6.4374  -45.3655   10.5997 H   0  0  0  0  0  0  0  0  0  0  0  0
   -5.1144  -47.4046   11.1277 H   0  0  0  0  0  0  0  0  0  0  0  0
   -3.0631  -47.9334    9.8390 H   0  0  0  0  0  0  0  0  0  0  0  0
   -8.1287  -45.0173    4.1571 H   0  0  0  0  0  0  0  0  0  0  0  0
   -9.2378  -45.5432    6.3249 H   0  0  0  0  0  0  0  0  0  0  0  0
   -8.1994  -44.8339    8.4599 H   0  0  0  0  0  0  0  0  0  0  0  0
   -5.0695  -42.8464    6.2624 H   0  0  0  0  0  0  0  0  0  0  0  0
   -6.0883  -43.5934    4.1208 H   0  0  0  0  0  0  0  0  0  0  0  0
  1  2  1  0  0  0  0
  2  3  1  0  0  0  0
  2  4  2  0  0  0  0
  4 11  1  0  0  0  0
  4 22  1  0  0  0  0
  5  6  1  0  0  0  0
  5 10  1  0  0  0  0
  5 22  2  0  0  0  0
  6  7  2  0  0  0  0
  7  8  1  0  0  0  0
  8  9  2  0  0  0  0
  9 10  1  0  0  0  0
 10 11  2  0  0  0  0
 11 12  1  0  0  0  0
 12 13  1  0  0  0  0
 13 14  1  0  0  0  0
 14 15  1  0  0  0  0
 15 16  1  0  0  0  0
 16 17  2  0  0  0  0
 16 21  1  0  0  0  0
 17 18  1  0  0  0  0
 18 19  2  0  0  0  0
 18 23  1  0  0  0  0
 19 20  1  0  0  0  0
 20 21  2  0  0  0  0
 23 27  1  0  0  0  0
 24 25  2  0  0  0  0
 24 29  1  0  0  0  0
 25 26  1  0  0  0  0
 26 27  2  0  0  0  0
 27 28  1  0  0  0  0
 28 29  2  0  0  0  0
  1 30  1  0  0  0  0
  3 31  1  0  0  0  0
  6 32  1  0  0  0  0
  7 33  1  0  0  0  0
  8 34  1  0  0  0  0
  9 35  1  0  0  0  0
 12 36  1  0  0  0  0
 12 37  1  0  0  0  0
 13 38  1  0  0  0  0
 13 39  1  0  0  0  0
 14 40  1  0  0  0  0
 14 41  1  0  0  0  0
 17 42  1  0  0  0  0
 19 43  1  0  0  0  0
 20 44  1  0  0  0  0
 21 45  1  0  0  0  0
 24 46  1  0  0  0  0
 25 47  1  0  0  0  0
 26 48  1  0  0  0  0
 28 49  1  0  0  0  0
 29 50  1  0  0  0  0
M  END
> <r_user_dG.exp>
-7.25302544244784

$$$$
