61
  -OEChem-05192314073D
 Structure written by MMmdl.
 44 46  0     0  0  0  0  0  0999 V2000
    3.8815  -49.5255    6.8965 O   0  0  0  0  0  0  0  0  0  0  0  0
    2.9282  -48.7315    6.8254 C   0  0  0  0  0  0  0  0  0  0  0  0
    3.1342  -47.4910    6.9198 O   0  0  0  0  0  0  0  0  0  0  0  0
    1.5361  -49.2540    6.6236 C   0  0  0  0  0  0  0  0  0  0  0  0
    1.4251  -50.9973    6.6970 S   0  0  0  0  0  0  0  0  0  0  0  0
   -0.3094  -50.9694    6.4244 C   0  0  0  0  0  0  0  0  0  0  0  0
   -1.1509  -52.0864    6.3706 C   0  0  0  0  0  0  0  0  0  0  0  0
   -2.5142  -51.9293    6.1225 C   0  0  0  0  0  0  0  0  0  0  0  0
   -3.0254  -50.6311    5.9294 C   0  0  0  0  0  0  0  0  0  0  0  0
   -2.1817  -49.5063    5.9843 C   0  0  0  0  0  0  0  0  0  0  0  0
   -0.7821  -49.6253    6.2498 C   0  0  0  0  0  0  0  0  0  0  0  0
    0.3084  -48.6541    6.3900 C   0  0  0  0  0  0  0  0  0  0  0  0
    0.1210  -47.1523    6.2826 C   0  0  0  0  0  0  0  0  0  0  0  0
   -0.4501  -46.5529    7.5729 C   0  0  0  0  0  0  0  0  0  0  0  0
   -0.8431  -45.0778    7.3833 C   0  0  0  0  0  0  0  0  0  0  0  0
   -1.8680  -44.9577    6.4022 O   0  0  0  0  0  0  0  0  0  0  0  0
   -3.1956  -44.8477    6.7661 C   0  0  0  0  0  0  0  0  0  0  0  0
   -3.7127  -45.1304    8.0498 C   0  0  0  0  0  0  0  0  0  0  0  0
   -5.0949  -44.9814    8.3077 C   0  0  0  0  0  0  0  0  0  0  0  0
   -5.6273  -45.2973    9.7021 C   0  0  0  0  0  0  0  0  0  0  0  0
   -5.9651  -44.5579    7.2880 C   0  0  0  0  0  0  0  0  0  0  0  0
   -7.6628  -44.3657    7.6086 Cl  0  0  0  0  0  0  0  0  0  0  0  0
   -5.4616  -44.2951    6.0024 C   0  0  0  0  0  0  0  0  0  0  0  0
   -6.3759  -43.8528    4.8618 C   0  0  0  0  0  0  0  0  0  0  0  0
   -4.0824  -44.4393    5.7601 C   0  0  0  0  0  0  0  0  0  0  0  0
   -2.9292  -47.9598    5.6975 Cl  0  0  0  0  0  0  0  0  0  0  0  0
    4.0629  -47.3321    7.0413 H   0  0  0  0  0  0  0  0  0  0  0  0
   -0.7426  -53.0747    6.5219 H   0  0  0  0  0  0  0  0  0  0  0  0
   -3.1670  -52.7886    6.0792 H   0  0  0  0  0  0  0  0  0  0  0  0
   -4.0796  -50.4971    5.7365 H   0  0  0  0  0  0  0  0  0  0  0  0
    1.0956  -46.6864    6.0752 H   0  0  0  0  0  0  0  0  0  0  0  0
   -0.5711  -46.9387    5.4547 H   0  0  0  0  0  0  0  0  0  0  0  0
   -1.3417  -47.1252    7.8689 H   0  0  0  0  0  0  0  0  0  0  0  0
    0.3094  -46.6214    8.3656 H   0  0  0  0  0  0  0  0  0  0  0  0
   -1.2080  -44.6745    8.3394 H   0  0  0  0  0  0  0  0  0  0  0  0
    0.0389  -44.5071    7.0573 H   0  0  0  0  0  0  0  0  0  0  0  0
   -3.0506  -45.4612    8.8363 H   0  0  0  0  0  0  0  0  0  0  0  0
   -5.6004  -44.3878   10.3202 H   0  0  0  0  0  0  0  0  0  0  0  0
   -6.6637  -45.6580    9.6257 H   0  0  0  0  0  0  0  0  0  0  0  0
   -5.0019  -46.0743   10.1659 H   0  0  0  0  0  0  0  0  0  0  0  0
   -6.4446  -42.7550    4.8509 H   0  0  0  0  0  0  0  0  0  0  0  0
   -5.9635  -44.2038    3.9043 H   0  0  0  0  0  0  0  0  0  0  0  0
   -7.3783  -44.2813    5.0084 H   0  0  0  0  0  0  0  0  0  0  0  0
   -3.6973  -44.2298    4.7731 H   0  0  0  0  0  0  0  0  0  0  0  0
  1  2  2  0  0  0  0
  2  3  1  0  0  0  0
  2  4  1  0  0  0  0
  4  5  1  0  0  0  0
  4 12  2  0  0  0  0
  5  6  1  0  0  0  0
  6  7  2  0  0  0  0
  6 11  1  0  0  0  0
  7  8  1  0  0  0  0
  8  9  2  0  0  0  0
  9 10  1  0  0  0  0
 10 11  2  0  0  0  0
 10 26  1  0  0  0  0
 11 12  1  0  0  0  0
 12 13  1  0  0  0  0
 13 14  1  0  0  0  0
 14 15  1  0  0  0  0
 15 16  1  0  0  0  0
 16 17  1  0  0  0  0
 17 18  2  0  0  0  0
 17 25  1  0  0  0  0
 18 19  1  0  0  0  0
 19 20  1  0  0  0  0
 19 21  2  0  0  0  0
 21 22  1  0  0  0  0
 21 23  1  0  0  0  0
 23 24  1  0  0  0  0
 23 25  2  0  0  0  0
  3 27  1  0  0  0  0
  7 28  1  0  0  0  0
  8 29  1  0  0  0  0
  9 30  1  0  0  0  0
 13 31  1  0  0  0  0
 13 32  1  0  0  0  0
 14 33  1  0  0  0  0
 14 34  1  0  0  0  0
 15 35  1  0  0  0  0
 15 36  1  0  0  0  0
 18 37  1  0  0  0  0
 20 38  1  0  0  0  0
 20 39  1  0  0  0  0
 20 40  1  0  0  0  0
 24 41  1  0  0  0  0
 24 42  1  0  0  0  0
 24 43  1  0  0  0  0
 25 44  1  0  0  0  0
M  END
> <r_user_dG.exp>
-8.07943709994224

$$$$
