ejm_54
  -OEChem-05192314073D
 Structure written by MMmdl.
 37 38  0     0  0  0  0  0  0999 V2000
   -1.9612   21.5502  -27.3300 C   0  0  0  0  0  0  0  0  0  0  0  0
   -1.2942   22.4120  -28.1957 C   0  0  0  0  0  0  0  0  0  0  0  0
   -1.9550   22.9520  -29.2938 C   0  0  0  0  0  0  0  0  0  0  0  0
   -3.2998   22.6223  -29.5426 C   0  0  0  0  0  0  0  0  0  0  0  0
   -3.9689   21.7588  -28.6534 C   0  0  0  0  0  0  0  0  0  0  0  0
   -3.2917   21.2292  -27.5624 C   0  0  0  0  0  0  0  0  0  0  0  0
   -5.6403   21.3533  -28.9190 Cl  0  0  0  0  0  0  0  0  0  0  0  0
   -4.0401   23.1522  -30.7110 C   0  0  0  0  0  0  0  0  0  0  0  0
   -4.2265   22.4198  -31.6685 O   0  0  0  0  0  0  0  0  0  0  0  0
   -4.5133   24.4119  -30.6476 N   0  0  0  0  0  0  0  0  0  0  0  0
   -5.2869   25.1112  -31.5800 C   0  0  0  0  0  0  0  0  0  0  0  0
   -5.9620   24.5479  -32.6807 C   0  0  0  0  0  0  0  0  0  0  0  0
   -6.7806   25.3609  -33.4589 C   0  0  0  0  0  0  0  0  0  0  0  0
   -6.9234   26.6542  -33.1828 N   0  0  0  0  0  0  0  0  0  0  0  0
   -6.2984   27.2317  -32.1577 C   0  0  0  0  0  0  0  0  0  0  0  0
   -5.5070   26.4571  -31.3066 C   0  0  0  0  0  0  0  0  0  0  0  0
   -6.5391   28.5828  -31.8838 N   0  0  0  0  0  0  0  0  0  0  0  0
   -5.7134   29.4445  -31.2331 C   0  0  0  0  0  0  0  0  0  0  0  0
   -4.6156   29.1218  -30.8098 O   0  0  0  0  0  0  0  0  0  0  0  0
   -1.1124   24.0506  -30.3318 Cl  0  0  0  0  0  0  0  0  0  0  0  0
   -5.1871   31.8542  -30.6778 C   0  0  0  0  0  0  0  0  0  0  0  0
   -3.9781   31.6716  -31.5468 C   0  0  0  0  0  0  0  0  0  0  0  0
   -6.1554   30.8245  -31.0242 N   0  0  0  0  0  0  0  0  0  0  0  0
   -1.4446   21.1319  -26.4788 H   0  0  0  0  0  0  0  0  0  0  0  0
   -0.2595   22.6624  -28.0140 H   0  0  0  0  0  0  0  0  0  0  0  0
   -3.8057   20.5606  -26.8877 H   0  0  0  0  0  0  0  0  0  0  0  0
   -4.2787   24.9180  -29.8177 H   0  0  0  0  0  0  0  0  0  0  0  0
   -5.8460   23.5005  -32.9171 H   0  0  0  0  0  0  0  0  0  0  0  0
   -7.3080   24.9353  -34.2998 H   0  0  0  0  0  0  0  0  0  0  0  0
   -5.0630   26.9061  -30.4304 H   0  0  0  0  0  0  0  0  0  0  0  0
   -7.4119   28.9540  -32.2007 H   0  0  0  0  0  0  0  0  0  0  0  0
   -4.9031   31.7575  -29.6195 H   0  0  0  0  0  0  0  0  0  0  0  0
   -5.6234   32.8490  -30.8509 H   0  0  0  0  0  0  0  0  0  0  0  0
   -3.2306   32.4407  -31.3023 H   0  0  0  0  0  0  0  0  0  0  0  0
   -3.5484   30.6742  -31.3721 H   0  0  0  0  0  0  0  0  0  0  0  0
   -4.2687   31.7657  -32.6035 H   0  0  0  0  0  0  0  0  0  0  0  0
   -7.1227   31.0595  -31.1195 H   0  0  0  0  0  0  0  0  0  0  0  0
  1  2  2  0  0  0  0
  1  6  1  0  0  0  0
  2  3  1  0  0  0  0
  3  4  2  0  0  0  0
  3 20  1  0  0  0  0
  4  5  1  0  0  0  0
  4  8  1  0  0  0  0
  5  6  2  0  0  0  0
  5  7  1  0  0  0  0
  8  9  2  0  0  0  0
  8 10  1  0  0  0  0
 10 11  1  0  0  0  0
 11 12  2  0  0  0  0
 11 16  1  0  0  0  0
 12 13  1  0  0  0  0
 13 14  2  0  0  0  0
 14 15  1  0  0  0  0
 15 16  2  0  0  0  0
 15 17  1  0  0  0  0
 17 18  1  0  0  0  0
 18 19  2  0  0  0  0
 18 23  1  0  0  0  0
 21 22  1  0  0  0  0
 21 23  1  0  0  0  0
  1 24  1  0  0  0  0
  2 25  1  0  0  0  0
  6 26  1  0  0  0  0
 10 27  1  0  0  0  0
 12 28  1  0  0  0  0
 13 29  1  0  0  0  0
 16 30  1  0  0  0  0
 17 31  1  0  0  0  0
 21 32  1  0  0  0  0
 21 33  1  0  0  0  0
 22 34  1  0  0  0  0
 22 35  1  0  0  0  0
 22 36  1  0  0  0  0
 23 37  1  0  0  0  0
M  END
> <r_user_dG.exp>
-10.53

$$$$
ejm_54
  -OEChem-05192314073D
 Structure written by MMmdl.
 37 38  0     0  0  0  0  0  0999 V2000
   -1.9612   21.5502  -27.3300 C   0  0  0  0  0  0  0  0  0  0  0  0
   -1.2942   22.4120  -28.1957 C   0  0  0  0  0  0  0  0  0  0  0  0
   -1.9550   22.9520  -29.2938 C   0  0  0  0  0  0  0  0  0  0  0  0
   -3.2998   22.6223  -29.5426 C   0  0  0  0  0  0  0  0  0  0  0  0
   -3.9689   21.7588  -28.6534 C   0  0  0  0  0  0  0  0  0  0  0  0
   -3.2917   21.2292  -27.5624 C   0  0  0  0  0  0  0  0  0  0  0  0
   -5.6403   21.3533  -28.9190 Cl  0  0  0  0  0  0  0  0  0  0  0  0
   -4.0401   23.1522  -30.7110 C   0  0  0  0  0  0  0  0  0  0  0  0
   -4.2265   22.4198  -31.6685 O   0  0  0  0  0  0  0  0  0  0  0  0
   -4.5133   24.4119  -30.6476 N   0  0  0  0  0  0  0  0  0  0  0  0
   -5.2869   25.1112  -31.5800 C   0  0  0  0  0  0  0  0  0  0  0  0
   -5.9620   24.5479  -32.6807 C   0  0  0  0  0  0  0  0  0  0  0  0
   -6.7806   25.3609  -33.4589 C   0  0  0  0  0  0  0  0  0  0  0  0
   -6.9234   26.6542  -33.1828 N   0  0  0  0  0  0  0  0  0  0  0  0
   -6.2984   27.2317  -32.1577 C   0  0  0  0  0  0  0  0  0  0  0  0
   -5.5070   26.4571  -31.3066 C   0  0  0  0  0  0  0  0  0  0  0  0
   -6.5391   28.5828  -31.8838 N   0  0  0  0  0  0  0  0  0  0  0  0
   -5.7134   29.4445  -31.2331 C   0  0  0  0  0  0  0  0  0  0  0  0
   -4.6156   29.1218  -30.8098 O   0  0  0  0  0  0  0  0  0  0  0  0
   -1.1124   24.0506  -30.3318 Cl  0  0  0  0  0  0  0  0  0  0  0  0
   -5.1871   31.8542  -30.6778 C   0  0  0  0  0  0  0  0  0  0  0  0
   -3.9781   31.6716  -31.5468 C   0  0  0  0  0  0  0  0  0  0  0  0
   -6.1554   30.8245  -31.0242 N   0  0  0  0  0  0  0  0  0  0  0  0
   -1.4446   21.1319  -26.4788 H   0  0  0  0  0  0  0  0  0  0  0  0
   -0.2595   22.6624  -28.0140 H   0  0  0  0  0  0  0  0  0  0  0  0
   -3.8057   20.5606  -26.8877 H   0  0  0  0  0  0  0  0  0  0  0  0
   -4.7104   22.8895  -32.3376 H   0  0  0  0  0  0  0  0  0  0  0  0
   -5.8460   23.5005  -32.9171 H   0  0  0  0  0  0  0  0  0  0  0  0
   -7.3080   24.9353  -34.2998 H   0  0  0  0  0  0  0  0  0  0  0  0
   -5.0630   26.9061  -30.4304 H   0  0  0  0  0  0  0  0  0  0  0  0
   -7.4119   28.9540  -32.2007 H   0  0  0  0  0  0  0  0  0  0  0  0
   -4.9031   31.7575  -29.6195 H   0  0  0  0  0  0  0  0  0  0  0  0
   -5.6234   32.8490  -30.8509 H   0  0  0  0  0  0  0  0  0  0  0  0
   -3.2306   32.4407  -31.3023 H   0  0  0  0  0  0  0  0  0  0  0  0
   -3.5484   30.6742  -31.3721 H   0  0  0  0  0  0  0  0  0  0  0  0
   -4.2687   31.7657  -32.6035 H   0  0  0  0  0  0  0  0  0  0  0  0
   -7.1227   31.0595  -31.1195 H   0  0  0  0  0  0  0  0  0  0  0  0
  1  2  2  0  0  0  0
  1  6  1  0  0  0  0
  2  3  1  0  0  0  0
  3  4  2  0  0  0  0
  3 20  1  0  0  0  0
  4  5  1  0  0  0  0
  4  8  1  0  0  0  0
  5  6  2  0  0  0  0
  5  7  1  0  0  0  0
  8  9  1  0  0  0  0
  8 10  2  0  0  0  0
 10 11  1  0  0  0  0
 11 12  2  0  0  0  0
 11 16  1  0  0  0  0
 12 13  1  0  0  0  0
 13 14  2  0  0  0  0
 14 15  1  0  0  0  0
 15 16  2  0  0  0  0
 15 17  1  0  0  0  0
 17 18  1  0  0  0  0
 18 19  2  0  0  0  0
 18 23  1  0  0  0  0
 21 22  1  0  0  0  0
 21 23  1  0  0  0  0
  1 24  1  0  0  0  0
  2 25  1  0  0  0  0
  6 26  1  0  0  0  0
  9 27  1  0  0  0  0
 12 28  1  0  0  0  0
 13 29  1  0  0  0  0
 16 30  1  0  0  0  0
 17 31  1  0  0  0  0
 21 32  1  0  0  0  0
 21 33  1  0  0  0  0
 22 34  1  0  0  0  0
 22 35  1  0  0  0  0
 22 36  1  0  0  0  0
 23 37  1  0  0  0  0
M  END
> <r_user_dG.exp>
-10.53

$$$$
ejm_54
  -OEChem-05192314073D
 Structure written by MMmdl.
 37 38  0     0  0  0  0  0  0999 V2000
   -1.9612   21.5502  -27.3300 C   0  0  0  0  0  0  0  0  0  0  0  0
   -1.2942   22.4120  -28.1957 C   0  0  0  0  0  0  0  0  0  0  0  0
   -1.9550   22.9520  -29.2938 C   0  0  0  0  0  0  0  0  0  0  0  0
   -3.2998   22.6223  -29.5426 C   0  0  0  0  0  0  0  0  0  0  0  0
   -3.9689   21.7588  -28.6534 C   0  0  0  0  0  0  0  0  0  0  0  0
   -3.2917   21.2292  -27.5624 C   0  0  0  0  0  0  0  0  0  0  0  0
   -5.6403   21.3533  -28.9190 Cl  0  0  0  0  0  0  0  0  0  0  0  0
   -4.0401   23.1522  -30.7110 C   0  0  0  0  0  0  0  0  0  0  0  0
   -4.2265   22.4198  -31.6685 O   0  0  0  0  0  0  0  0  0  0  0  0
   -4.5133   24.4119  -30.6476 N   0  0  0  0  0  0  0  0  0  0  0  0
   -5.2869   25.1112  -31.5800 C   0  0  0  0  0  0  0  0  0  0  0  0
   -5.9620   24.5479  -32.6807 C   0  0  0  0  0  0  0  0  0  0  0  0
   -6.7806   25.3609  -33.4589 C   0  0  0  0  0  0  0  0  0  0  0  0
   -6.9234   26.6542  -33.1828 N   0  0  0  0  0  0  0  0  0  0  0  0
   -6.2984   27.2317  -32.1577 C   0  0  0  0  0  0  0  0  0  0  0  0
   -5.5070   26.4571  -31.3066 C   0  0  0  0  0  0  0  0  0  0  0  0
   -6.5391   28.5828  -31.8838 N   0  0  0  0  0  0  0  0  0  0  0  0
   -5.7134   29.4445  -31.2331 C   0  0  0  0  0  0  0  0  0  0  0  0
   -4.6156   29.1218  -30.8098 O   0  0  0  0  0  0  0  0  0  0  0  0
   -1.1124   24.0506  -30.3318 Cl  0  0  0  0  0  0  0  0  0  0  0  0
   -5.1871   31.8542  -30.6778 C   0  0  0  0  0  0  0  0  0  0  0  0
   -3.9781   31.6716  -31.5468 C   0  0  0  0  0  0  0  0  0  0  0  0
   -6.1554   30.8245  -31.0242 N   0  0  0  0  0  0  0  0  0  0  0  0
   -1.4446   21.1319  -26.4788 H   0  0  0  0  0  0  0  0  0  0  0  0
   -0.2595   22.6624  -28.0140 H   0  0  0  0  0  0  0  0  0  0  0  0
   -3.8057   20.5606  -26.8877 H   0  0  0  0  0  0  0  0  0  0  0  0
   -4.2787   24.9180  -29.8177 H   0  0  0  0  0  0  0  0  0  0  0  0
   -5.8460   23.5005  -32.9171 H   0  0  0  0  0  0  0  0  0  0  0  0
   -7.3080   24.9353  -34.2998 H   0  0  0  0  0  0  0  0  0  0  0  0
   -5.0630   26.9061  -30.4304 H   0  0  0  0  0  0  0  0  0  0  0  0
   -7.4119   28.9540  -32.2007 H   0  0  0  0  0  0  0  0  0  0  0  0
   -4.2052   29.8690  -30.3905 H   0  0  0  0  0  0  0  0  0  0  0  0
   -4.9031   31.7575  -29.6195 H   0  0  0  0  0  0  0  0  0  0  0  0
   -5.6234   32.8490  -30.8509 H   0  0  0  0  0  0  0  0  0  0  0  0
   -3.2306   32.4407  -31.3023 H   0  0  0  0  0  0  0  0  0  0  0  0
   -3.5484   30.6742  -31.3721 H   0  0  0  0  0  0  0  0  0  0  0  0
   -4.2687   31.7657  -32.6035 H   0  0  0  0  0  0  0  0  0  0  0  0
  1  2  2  0  0  0  0
  1  6  1  0  0  0  0
  2  3  1  0  0  0  0
  3  4  2  0  0  0  0
  3 20  1  0  0  0  0
  4  5  1  0  0  0  0
  4  8  1  0  0  0  0
  5  6  2  0  0  0  0
  5  7  1  0  0  0  0
  8  9  2  0  0  0  0
  8 10  1  0  0  0  0
 10 11  1  0  0  0  0
 11 12  2  0  0  0  0
 11 16  1  0  0  0  0
 12 13  1  0  0  0  0
 13 14  2  0  0  0  0
 14 15  1  0  0  0  0
 15 16  2  0  0  0  0
 15 17  1  0  0  0  0
 17 18  1  0  0  0  0
 18 19  1  0  0  0  0
 18 23  2  0  0  0  0
 21 22  1  0  0  0  0
 21 23  1  0  0  0  0
  1 24  1  0  0  0  0
  2 25  1  0  0  0  0
  6 26  1  0  0  0  0
 10 27  1  0  0  0  0
 12 28  1  0  0  0  0
 13 29  1  0  0  0  0
 16 30  1  0  0  0  0
 17 31  1  0  0  0  0
 19 32  1  0  0  0  0
 21 33  1  0  0  0  0
 21 34  1  0  0  0  0
 22 35  1  0  0  0  0
 22 36  1  0  0  0  0
 22 37  1  0  0  0  0
M  END
> <r_user_dG.exp>
-10.53

$$$$
ejm_54
  -OEChem-05192314073D
 Structure written by MMmdl.
 37 38  0     0  0  0  0  0  0999 V2000
   -1.9612   21.5502  -27.3300 C   0  0  0  0  0  0  0  0  0  0  0  0
   -1.2942   22.4120  -28.1957 C   0  0  0  0  0  0  0  0  0  0  0  0
   -1.9550   22.9520  -29.2938 C   0  0  0  0  0  0  0  0  0  0  0  0
   -3.2998   22.6223  -29.5426 C   0  0  0  0  0  0  0  0  0  0  0  0
   -3.9689   21.7588  -28.6534 C   0  0  0  0  0  0  0  0  0  0  0  0
   -3.2917   21.2292  -27.5624 C   0  0  0  0  0  0  0  0  0  0  0  0
   -5.6403   21.3533  -28.9190 Cl  0  0  0  0  0  0  0  0  0  0  0  0
   -4.0401   23.1522  -30.7110 C   0  0  0  0  0  0  0  0  0  0  0  0
   -4.2265   22.4198  -31.6685 O   0  0  0  0  0  0  0  0  0  0  0  0
   -4.5133   24.4119  -30.6476 N   0  0  0  0  0  0  0  0  0  0  0  0
   -5.2869   25.1112  -31.5800 C   0  0  0  0  0  0  0  0  0  0  0  0
   -5.9620   24.5479  -32.6807 C   0  0  0  0  0  0  0  0  0  0  0  0
   -6.7806   25.3609  -33.4589 C   0  0  0  0  0  0  0  0  0  0  0  0
   -6.9234   26.6542  -33.1828 N   0  0  0  0  0  0  0  0  0  0  0  0
   -6.2984   27.2317  -32.1577 C   0  0  0  0  0  0  0  0  0  0  0  0
   -5.5070   26.4571  -31.3066 C   0  0  0  0  0  0  0  0  0  0  0  0
   -6.5391   28.5828  -31.8838 N   0  0  0  0  0  0  0  0  0  0  0  0
   -5.7134   29.4445  -31.2331 C   0  0  0  0  0  0  0  0  0  0  0  0
   -4.6156   29.1218  -30.8098 O   0  0  0  0  0  0  0  0  0  0  0  0
   -1.1124   24.0506  -30.3318 Cl  0  0  0  0  0  0  0  0  0  0  0  0
   -5.1871   31.8542  -30.6778 C   0  0  0  0  0  0  0  0  0  0  0  0
   -3.9781   31.6716  -31.5468 C   0  0  0  0  0  0  0  0  0  0  0  0
   -6.1554   30.8245  -31.0242 N   0  0  0  0  0  0  0  0  0  0  0  0
   -1.4446   21.1319  -26.4788 H   0  0  0  0  0  0  0  0  0  0  0  0
   -0.2595   22.6624  -28.0140 H   0  0  0  0  0  0  0  0  0  0  0  0
   -3.8057   20.5606  -26.8877 H   0  0  0  0  0  0  0  0  0  0  0  0
   -4.2787   24.9180  -29.8177 H   0  0  0  0  0  0  0  0  0  0  0  0
   -5.8460   23.5005  -32.9171 H   0  0  0  0  0  0  0  0  0  0  0  0
   -7.3080   24.9353  -34.2998 H   0  0  0  0  0  0  0  0  0  0  0  0
   -5.0630   26.9061  -30.4304 H   0  0  0  0  0  0  0  0  0  0  0  0
   -4.2052   29.8690  -30.3905 H   0  0  0  0  0  0  0  0  0  0  0  0
   -4.9031   31.7575  -29.6195 H   0  0  0  0  0  0  0  0  0  0  0  0
   -5.6234   32.8490  -30.8509 H   0  0  0  0  0  0  0  0  0  0  0  0
   -3.2306   32.4407  -31.3023 H   0  0  0  0  0  0  0  0  0  0  0  0
   -3.5484   30.6742  -31.3721 H   0  0  0  0  0  0  0  0  0  0  0  0
   -4.2687   31.7657  -32.6035 H   0  0  0  0  0  0  0  0  0  0  0  0
   -7.1227   31.0595  -31.1195 H   0  0  0  0  0  0  0  0  0  0  0  0
  1  2  2  0  0  0  0
  1  6  1  0  0  0  0
  2  3  1  0  0  0  0
  3  4  2  0  0  0  0
  3 20  1  0  0  0  0
  4  5  1  0  0  0  0
  4  8  1  0  0  0  0
  5  6  2  0  0  0  0
  5  7  1  0  0  0  0
  8  9  2  0  0  0  0
  8 10  1  0  0  0  0
 10 11  1  0  0  0  0
 11 12  2  0  0  0  0
 11 16  1  0  0  0  0
 12 13  1  0  0  0  0
 13 14  2  0  0  0  0
 14 15  1  0  0  0  0
 15 16  2  0  0  0  0
 15 17  1  0  0  0  0
 17 18  2  0  0  0  0
 18 19  1  0  0  0  0
 18 23  1  0  0  0  0
 21 22  1  0  0  0  0
 21 23  1  0  0  0  0
  1 24  1  0  0  0  0
  2 25  1  0  0  0  0
  6 26  1  0  0  0  0
 10 27  1  0  0  0  0
 12 28  1  0  0  0  0
 13 29  1  0  0  0  0
 16 30  1  0  0  0  0
 19 31  1  0  0  0  0
 21 32  1  0  0  0  0
 21 33  1  0  0  0  0
 22 34  1  0  0  0  0
 22 35  1  0  0  0  0
 22 36  1  0  0  0  0
 23 37  1  0  0  0  0
M  END
> <r_user_dG.exp>
-10.53

$$$$
ejm_54
  -OEChem-05192314073D
 Structure written by MMmdl.
 37 38  0     0  0  0  0  0  0999 V2000
   -1.9612   21.5502  -27.3300 C   0  0  0  0  0  0  0  0  0  0  0  0
   -1.2942   22.4120  -28.1957 C   0  0  0  0  0  0  0  0  0  0  0  0
   -1.9550   22.9520  -29.2938 C   0  0  0  0  0  0  0  0  0  0  0  0
   -3.2998   22.6223  -29.5426 C   0  0  0  0  0  0  0  0  0  0  0  0
   -3.9689   21.7588  -28.6534 C   0  0  0  0  0  0  0  0  0  0  0  0
   -3.2917   21.2292  -27.5624 C   0  0  0  0  0  0  0  0  0  0  0  0
   -5.6403   21.3533  -28.9190 Cl  0  0  0  0  0  0  0  0  0  0  0  0
   -4.0401   23.1522  -30.7110 C   0  0  0  0  0  0  0  0  0  0  0  0
   -4.2265   22.4198  -31.6685 O   0  0  0  0  0  0  0  0  0  0  0  0
   -4.5133   24.4119  -30.6476 N   0  0  0  0  0  0  0  0  0  0  0  0
   -5.2869   25.1112  -31.5800 C   0  0  0  0  0  0  0  0  0  0  0  0
   -5.9620   24.5479  -32.6807 C   0  0  0  0  0  0  0  0  0  0  0  0
   -6.7806   25.3609  -33.4589 C   0  0  0  0  0  0  0  0  0  0  0  0
   -6.9234   26.6542  -33.1828 N   0  0  0  0  0  0  0  0  0  0  0  0
   -6.2984   27.2317  -32.1577 C   0  0  0  0  0  0  0  0  0  0  0  0
   -5.5070   26.4571  -31.3066 C   0  0  0  0  0  0  0  0  0  0  0  0
   -6.5391   28.5828  -31.8838 N   0  0  0  0  0  0  0  0  0  0  0  0
   -5.7134   29.4445  -31.2331 C   0  0  0  0  0  0  0  0  0  0  0  0
   -4.6156   29.1218  -30.8098 O   0  0  0  0  0  0  0  0  0  0  0  0
   -1.1124   24.0506  -30.3318 Cl  0  0  0  0  0  0  0  0  0  0  0  0
   -5.1871   31.8542  -30.6778 C   0  0  0  0  0  0  0  0  0  0  0  0
   -3.9781   31.6716  -31.5468 C   0  0  0  0  0  0  0  0  0  0  0  0
   -6.1554   30.8245  -31.0242 N   0  0  0  0  0  0  0  0  0  0  0  0
   -1.4446   21.1319  -26.4788 H   0  0  0  0  0  0  0  0  0  0  0  0
   -0.2595   22.6624  -28.0140 H   0  0  0  0  0  0  0  0  0  0  0  0
   -3.8057   20.5606  -26.8877 H   0  0  0  0  0  0  0  0  0  0  0  0
   -4.7104   22.8895  -32.3376 H   0  0  0  0  0  0  0  0  0  0  0  0
   -5.8460   23.5005  -32.9171 H   0  0  0  0  0  0  0  0  0  0  0  0
   -7.3080   24.9353  -34.2998 H   0  0  0  0  0  0  0  0  0  0  0  0
   -5.0630   26.9061  -30.4304 H   0  0  0  0  0  0  0  0  0  0  0  0
   -7.4119   28.9540  -32.2007 H   0  0  0  0  0  0  0  0  0  0  0  0
   -4.2052   29.8690  -30.3905 H   0  0  0  0  0  0  0  0  0  0  0  0
   -4.9031   31.7575  -29.6195 H   0  0  0  0  0  0  0  0  0  0  0  0
   -5.6234   32.8490  -30.8509 H   0  0  0  0  0  0  0  0  0  0  0  0
   -3.2306   32.4407  -31.3023 H   0  0  0  0  0  0  0  0  0  0  0  0
   -3.5484   30.6742  -31.3721 H   0  0  0  0  0  0  0  0  0  0  0  0
   -4.2687   31.7657  -32.6035 H   0  0  0  0  0  0  0  0  0  0  0  0
  1  2  2  0  0  0  0
  1  6  1  0  0  0  0
  2  3  1  0  0  0  0
  3  4  2  0  0  0  0
  3 20  1  0  0  0  0
  4  5  1  0  0  0  0
  4  8  1  0  0  0  0
  5  6  2  0  0  0  0
  5  7  1  0  0  0  0
  8  9  1  0  0  0  0
  8 10  2  0  0  0  0
 10 11  1  0  0  0  0
 11 12  2  0  0  0  0
 11 16  1  0  0  0  0
 12 13  1  0  0  0  0
 13 14  2  0  0  0  0
 14 15  1  0  0  0  0
 15 16  2  0  0  0  0
 15 17  1  0  0  0  0
 17 18  1  0  0  0  0
 18 19  1  0  0  0  0
 18 23  2  0  0  0  0
 21 22  1  0  0  0  0
 21 23  1  0  0  0  0
  1 24  1  0  0  0  0
  2 25  1  0  0  0  0
  6 26  1  0  0  0  0
  9 27  1  0  0  0  0
 12 28  1  0  0  0  0
 13 29  1  0  0  0  0
 16 30  1  0  0  0  0
 17 31  1  0  0  0  0
 19 32  1  0  0  0  0
 21 33  1  0  0  0  0
 21 34  1  0  0  0  0
 22 35  1  0  0  0  0
 22 36  1  0  0  0  0
 22 37  1  0  0  0  0
M  END
> <r_user_dG.exp>
-10.53

$$$$
ejm_54
  -OEChem-05192314073D
 Structure written by MMmdl.
 37 38  0     0  0  0  0  0  0999 V2000
   -1.9612   21.5502  -27.3300 C   0  0  0  0  0  0  0  0  0  0  0  0
   -1.2942   22.4120  -28.1957 C   0  0  0  0  0  0  0  0  0  0  0  0
   -1.9550   22.9520  -29.2938 C   0  0  0  0  0  0  0  0  0  0  0  0
   -3.2998   22.6223  -29.5426 C   0  0  0  0  0  0  0  0  0  0  0  0
   -3.9689   21.7588  -28.6534 C   0  0  0  0  0  0  0  0  0  0  0  0
   -3.2917   21.2292  -27.5624 C   0  0  0  0  0  0  0  0  0  0  0  0
   -5.6403   21.3533  -28.9190 Cl  0  0  0  0  0  0  0  0  0  0  0  0
   -4.0401   23.1522  -30.7110 C   0  0  0  0  0  0  0  0  0  0  0  0
   -4.2265   22.4198  -31.6685 O   0  0  0  0  0  0  0  0  0  0  0  0
   -4.5133   24.4119  -30.6476 N   0  0  0  0  0  0  0  0  0  0  0  0
   -5.2869   25.1112  -31.5800 C   0  0  0  0  0  0  0  0  0  0  0  0
   -5.9620   24.5479  -32.6807 C   0  0  0  0  0  0  0  0  0  0  0  0
   -6.7806   25.3609  -33.4589 C   0  0  0  0  0  0  0  0  0  0  0  0
   -6.9234   26.6542  -33.1828 N   0  0  0  0  0  0  0  0  0  0  0  0
   -6.2984   27.2317  -32.1577 C   0  0  0  0  0  0  0  0  0  0  0  0
   -5.5070   26.4571  -31.3066 C   0  0  0  0  0  0  0  0  0  0  0  0
   -6.5391   28.5828  -31.8838 N   0  0  0  0  0  0  0  0  0  0  0  0
   -5.7134   29.4445  -31.2331 C   0  0  0  0  0  0  0  0  0  0  0  0
   -4.6156   29.1218  -30.8098 O   0  0  0  0  0  0  0  0  0  0  0  0
   -1.1124   24.0506  -30.3318 Cl  0  0  0  0  0  0  0  0  0  0  0  0
   -5.1871   31.8542  -30.6778 C   0  0  0  0  0  0  0  0  0  0  0  0
   -3.9781   31.6716  -31.5468 C   0  0  0  0  0  0  0  0  0  0  0  0
   -6.1554   30.8245  -31.0242 N   0  0  0  0  0  0  0  0  0  0  0  0
   -1.4446   21.1319  -26.4788 H   0  0  0  0  0  0  0  0  0  0  0  0
   -0.2595   22.6624  -28.0140 H   0  0  0  0  0  0  0  0  0  0  0  0
   -3.8057   20.5606  -26.8877 H   0  0  0  0  0  0  0  0  0  0  0  0
   -4.7104   22.8895  -32.3376 H   0  0  0  0  0  0  0  0  0  0  0  0
   -5.8460   23.5005  -32.9171 H   0  0  0  0  0  0  0  0  0  0  0  0
   -7.3080   24.9353  -34.2998 H   0  0  0  0  0  0  0  0  0  0  0  0
   -5.0630   26.9061  -30.4304 H   0  0  0  0  0  0  0  0  0  0  0  0
   -4.2052   29.8690  -30.3905 H   0  0  0  0  0  0  0  0  0  0  0  0
   -4.9031   31.7575  -29.6195 H   0  0  0  0  0  0  0  0  0  0  0  0
   -5.6234   32.8490  -30.8509 H   0  0  0  0  0  0  0  0  0  0  0  0
   -3.2306   32.4407  -31.3023 H   0  0  0  0  0  0  0  0  0  0  0  0
   -3.5484   30.6742  -31.3721 H   0  0  0  0  0  0  0  0  0  0  0  0
   -4.2687   31.7657  -32.6035 H   0  0  0  0  0  0  0  0  0  0  0  0
   -7.1227   31.0595  -31.1195 H   0  0  0  0  0  0  0  0  0  0  0  0
  1  2  2  0  0  0  0
  1  6  1  0  0  0  0
  2  3  1  0  0  0  0
  3  4  2  0  0  0  0
  3 20  1  0  0  0  0
  4  5  1  0  0  0  0
  4  8  1  0  0  0  0
  5  6  2  0  0  0  0
  5  7  1  0  0  0  0
  8  9  1  0  0  0  0
  8 10  2  0  0  0  0
 10 11  1  0  0  0  0
 11 12  2  0  0  0  0
 11 16  1  0  0  0  0
 12 13  1  0  0  0  0
 13 14  2  0  0  0  0
 14 15  1  0  0  0  0
 15 16  2  0  0  0  0
 15 17  1  0  0  0  0
 17 18  2  0  0  0  0
 18 19  1  0  0  0  0
 18 23  1  0  0  0  0
 21 22  1  0  0  0  0
 21 23  1  0  0  0  0
  1 24  1  0  0  0  0
  2 25  1  0  0  0  0
  6 26  1  0  0  0  0
  9 27  1  0  0  0  0
 12 28  1  0  0  0  0
 13 29  1  0  0  0  0
 16 30  1  0  0  0  0
 19 31  1  0  0  0  0
 21 32  1  0  0  0  0
 21 33  1  0  0  0  0
 22 34  1  0  0  0  0
 22 35  1  0  0  0  0
 22 36  1  0  0  0  0
 23 37  1  0  0  0  0
M  END
> <r_user_dG.exp>
-10.53

$$$$
ejm_54
  -OEChem-05192314073D
 Structure written by MMmdl.
 37 38  0     0  0  0  0  0  0999 V2000
   -1.9612   21.5502  -27.3300 C   0  0  0  0  0  0  0  0  0  0  0  0
   -1.2942   22.4120  -28.1957 C   0  0  0  0  0  0  0  0  0  0  0  0
   -1.9550   22.9520  -29.2938 C   0  0  0  0  0  0  0  0  0  0  0  0
   -3.2998   22.6223  -29.5426 C   0  0  0  0  0  0  0  0  0  0  0  0
   -3.9689   21.7588  -28.6534 C   0  0  0  0  0  0  0  0  0  0  0  0
   -3.2917   21.2292  -27.5624 C   0  0  0  0  0  0  0  0  0  0  0  0
   -5.6403   21.3533  -28.9190 Cl  0  0  0  0  0  0  0  0  0  0  0  0
   -4.0401   23.1522  -30.7110 C   0  0  0  0  0  0  0  0  0  0  0  0
   -4.2265   22.4198  -31.6685 O   0  0  0  0  0  0  0  0  0  0  0  0
   -4.5133   24.4119  -30.6476 N   0  0  0  0  0  0  0  0  0  0  0  0
   -5.2869   25.1112  -31.5800 C   0  0  0  0  0  0  0  0  0  0  0  0
   -5.9620   24.5479  -32.6807 C   0  0  0  0  0  0  0  0  0  0  0  0
   -6.7806   25.3609  -33.4589 C   0  0  0  0  0  0  0  0  0  0  0  0
   -6.9234   26.6542  -33.1828 N   0  0  0  0  0  0  0  0  0  0  0  0
   -6.2984   27.2317  -32.1577 C   0  0  0  0  0  0  0  0  0  0  0  0
   -5.5070   26.4571  -31.3066 C   0  0  0  0  0  0  0  0  0  0  0  0
   -6.5391   28.5828  -31.8838 N   0  0  0  0  0  0  0  0  0  0  0  0
   -5.7134   29.4445  -31.2331 C   0  0  0  0  0  0  0  0  0  0  0  0
   -4.6156   29.1218  -30.8098 O   0  0  0  0  0  0  0  0  0  0  0  0
   -1.1124   24.0506  -30.3318 Cl  0  0  0  0  0  0  0  0  0  0  0  0
   -5.1871   31.8542  -30.6778 C   0  0  0  0  0  0  0  0  0  0  0  0
   -3.9781   31.6716  -31.5468 C   0  0  0  0  0  0  0  0  0  0  0  0
   -6.1554   30.8245  -31.0242 N   0  0  0  0  0  0  0  0  0  0  0  0
   -1.4446   21.1319  -26.4788 H   0  0  0  0  0  0  0  0  0  0  0  0
   -0.2595   22.6624  -28.0140 H   0  0  0  0  0  0  0  0  0  0  0  0
   -3.8057   20.5606  -26.8877 H   0  0  0  0  0  0  0  0  0  0  0  0
   -4.2787   24.9180  -29.8177 H   0  0  0  0  0  0  0  0  0  0  0  0
   -5.8460   23.5005  -32.9171 H   0  0  0  0  0  0  0  0  0  0  0  0
   -7.3080   24.9353  -34.2998 H   0  0  0  0  0  0  0  0  0  0  0  0
   -7.5185   27.2105  -33.7628 H   0  0  0  0  0  0  0  0  0  0  0  0
   -5.0630   26.9061  -30.4304 H   0  0  0  0  0  0  0  0  0  0  0  0
   -4.9031   31.7575  -29.6195 H   0  0  0  0  0  0  0  0  0  0  0  0
   -5.6234   32.8490  -30.8509 H   0  0  0  0  0  0  0  0  0  0  0  0
   -3.2306   32.4407  -31.3023 H   0  0  0  0  0  0  0  0  0  0  0  0
   -3.5484   30.6742  -31.3721 H   0  0  0  0  0  0  0  0  0  0  0  0
   -4.2687   31.7657  -32.6035 H   0  0  0  0  0  0  0  0  0  0  0  0
   -7.1227   31.0595  -31.1195 H   0  0  0  0  0  0  0  0  0  0  0  0
  1  2  2  0  0  0  0
  1  6  1  0  0  0  0
  2  3  1  0  0  0  0
  3  4  2  0  0  0  0
  3 20  1  0  0  0  0
  4  5  1  0  0  0  0
  4  8  1  0  0  0  0
  5  6  2  0  0  0  0
  5  7  1  0  0  0  0
  8  9  2  0  0  0  0
  8 10  1  0  0  0  0
 10 11  1  0  0  0  0
 11 12  1  0  0  0  0
 11 16  2  0  0  0  0
 12 13  2  0  0  0  0
 13 14  1  0  0  0  0
 14 15  1  0  0  0  0
 15 16  1  0  0  0  0
 15 17  2  0  0  0  0
 17 18  1  0  0  0  0
 18 19  2  0  0  0  0
 18 23  1  0  0  0  0
 21 22  1  0  0  0  0
 21 23  1  0  0  0  0
  1 24  1  0  0  0  0
  2 25  1  0  0  0  0
  6 26  1  0  0  0  0
 10 27  1  0  0  0  0
 12 28  1  0  0  0  0
 13 29  1  0  0  0  0
 14 30  1  0  0  0  0
 16 31  1  0  0  0  0
 21 32  1  0  0  0  0
 21 33  1  0  0  0  0
 22 34  1  0  0  0  0
 22 35  1  0  0  0  0
 22 36  1  0  0  0  0
 23 37  1  0  0  0  0
M  END
> <r_user_dG.exp>
-10.53

$$$$
ejm_54
  -OEChem-05192314073D
 Structure written by MMmdl.
 37 38  0     0  0  0  0  0  0999 V2000
   -1.9612   21.5502  -27.3300 C   0  0  0  0  0  0  0  0  0  0  0  0
   -1.2942   22.4120  -28.1957 C   0  0  0  0  0  0  0  0  0  0  0  0
   -1.9550   22.9520  -29.2938 C   0  0  0  0  0  0  0  0  0  0  0  0
   -3.2998   22.6223  -29.5426 C   0  0  0  0  0  0  0  0  0  0  0  0
   -3.9689   21.7588  -28.6534 C   0  0  0  0  0  0  0  0  0  0  0  0
   -3.2917   21.2292  -27.5624 C   0  0  0  0  0  0  0  0  0  0  0  0
   -5.6403   21.3533  -28.9190 Cl  0  0  0  0  0  0  0  0  0  0  0  0
   -4.0401   23.1522  -30.7110 C   0  0  0  0  0  0  0  0  0  0  0  0
   -4.2265   22.4198  -31.6685 O   0  0  0  0  0  0  0  0  0  0  0  0
   -4.5133   24.4119  -30.6476 N   0  0  0  0  0  0  0  0  0  0  0  0
   -5.2869   25.1112  -31.5800 C   0  0  0  0  0  0  0  0  0  0  0  0
   -5.9620   24.5479  -32.6807 C   0  0  0  0  0  0  0  0  0  0  0  0
   -6.7806   25.3609  -33.4589 C   0  0  0  0  0  0  0  0  0  0  0  0
   -6.9234   26.6542  -33.1828 N   0  0  0  0  0  0  0  0  0  0  0  0
   -6.2984   27.2317  -32.1577 C   0  0  0  0  0  0  0  0  0  0  0  0
   -5.5070   26.4571  -31.3066 C   0  0  0  0  0  0  0  0  0  0  0  0
   -6.5391   28.5828  -31.8838 N   0  0  0  0  0  0  0  0  0  0  0  0
   -5.7134   29.4445  -31.2331 C   0  0  0  0  0  0  0  0  0  0  0  0
   -4.6156   29.1218  -30.8098 O   0  0  0  0  0  0  0  0  0  0  0  0
   -1.1124   24.0506  -30.3318 Cl  0  0  0  0  0  0  0  0  0  0  0  0
   -5.1871   31.8542  -30.6778 C   0  0  0  0  0  0  0  0  0  0  0  0
   -3.9781   31.6716  -31.5468 C   0  0  0  0  0  0  0  0  0  0  0  0
   -6.1554   30.8245  -31.0242 N   0  0  0  0  0  0  0  0  0  0  0  0
   -1.4446   21.1319  -26.4788 H   0  0  0  0  0  0  0  0  0  0  0  0
   -0.2595   22.6624  -28.0140 H   0  0  0  0  0  0  0  0  0  0  0  0
   -3.8057   20.5606  -26.8877 H   0  0  0  0  0  0  0  0  0  0  0  0
   -5.8460   23.5005  -32.9171 H   0  0  0  0  0  0  0  0  0  0  0  0
   -7.3080   24.9353  -34.2998 H   0  0  0  0  0  0  0  0  0  0  0  0
   -7.5185   27.2105  -33.7628 H   0  0  0  0  0  0  0  0  0  0  0  0
   -5.0630   26.9061  -30.4304 H   0  0  0  0  0  0  0  0  0  0  0  0
   -7.4119   28.9540  -32.2007 H   0  0  0  0  0  0  0  0  0  0  0  0
   -4.9031   31.7575  -29.6195 H   0  0  0  0  0  0  0  0  0  0  0  0
   -5.6234   32.8490  -30.8509 H   0  0  0  0  0  0  0  0  0  0  0  0
   -3.2306   32.4407  -31.3023 H   0  0  0  0  0  0  0  0  0  0  0  0
   -3.5484   30.6742  -31.3721 H   0  0  0  0  0  0  0  0  0  0  0  0
   -4.2687   31.7657  -32.6035 H   0  0  0  0  0  0  0  0  0  0  0  0
   -7.1227   31.0595  -31.1195 H   0  0  0  0  0  0  0  0  0  0  0  0
  1  2  2  0  0  0  0
  1  6  1  0  0  0  0
  2  3  1  0  0  0  0
  3  4  2  0  0  0  0
  3 20  1  0  0  0  0
  4  5  1  0  0  0  0
  4  8  1  0  0  0  0
  5  6  2  0  0  0  0
  5  7  1  0  0  0  0
  8  9  2  0  0  0  0
  8 10  1  0  0  0  0
 10 11  2  0  0  0  0
 11 12  1  0  0  0  0
 11 16  1  0  0  0  0
 12 13  2  0  0  0  0
 13 14  1  0  0  0  0
 14 15  1  0  0  0  0
 15 16  2  0  0  0  0
 15 17  1  0  0  0  0
 17 18  1  0  0  0  0
 18 19  2  0  0  0  0
 18 23  1  0  0  0  0
 21 22  1  0  0  0  0
 21 23  1  0  0  0  0
  1 24  1  0  0  0  0
  2 25  1  0  0  0  0
  6 26  1  0  0  0  0
 12 27  1  0  0  0  0
 13 28  1  0  0  0  0
 14 29  1  0  0  0  0
 16 30  1  0  0  0  0
 17 31  1  0  0  0  0
 21 32  1  0  0  0  0
 21 33  1  0  0  0  0
 22 34  1  0  0  0  0
 22 35  1  0  0  0  0
 22 36  1  0  0  0  0
 23 37  1  0  0  0  0
M  END
> <r_user_dG.exp>
-10.53

$$$$
ejm_54
  -OEChem-05192314073D
 Structure written by MMmdl.
 37 38  0     0  0  0  0  0  0999 V2000
   -1.9612   21.5502  -27.3300 C   0  0  0  0  0  0  0  0  0  0  0  0
   -1.2942   22.4120  -28.1957 C   0  0  0  0  0  0  0  0  0  0  0  0
   -1.9550   22.9520  -29.2938 C   0  0  0  0  0  0  0  0  0  0  0  0
   -3.2998   22.6223  -29.5426 C   0  0  0  0  0  0  0  0  0  0  0  0
   -3.9689   21.7588  -28.6534 C   0  0  0  0  0  0  0  0  0  0  0  0
   -3.2917   21.2292  -27.5624 C   0  0  0  0  0  0  0  0  0  0  0  0
   -5.6403   21.3533  -28.9190 Cl  0  0  0  0  0  0  0  0  0  0  0  0
   -4.0401   23.1522  -30.7110 C   0  0  0  0  0  0  0  0  0  0  0  0
   -4.2265   22.4198  -31.6685 O   0  0  0  0  0  0  0  0  0  0  0  0
   -4.5133   24.4119  -30.6476 N   0  0  0  0  0  0  0  0  0  0  0  0
   -5.2869   25.1112  -31.5800 C   0  0  0  0  0  0  0  0  0  0  0  0
   -5.9620   24.5479  -32.6807 C   0  0  0  0  0  0  0  0  0  0  0  0
   -6.7806   25.3609  -33.4589 C   0  0  0  0  0  0  0  0  0  0  0  0
   -6.9234   26.6542  -33.1828 N   0  0  0  0  0  0  0  0  0  0  0  0
   -6.2984   27.2317  -32.1577 C   0  0  0  0  0  0  0  0  0  0  0  0
   -5.5070   26.4571  -31.3066 C   0  0  0  0  0  0  0  0  0  0  0  0
   -6.5391   28.5828  -31.8838 N   0  0  0  0  0  0  0  0  0  0  0  0
   -5.7134   29.4445  -31.2331 C   0  0  0  0  0  0  0  0  0  0  0  0
   -4.6156   29.1218  -30.8098 O   0  0  0  0  0  0  0  0  0  0  0  0
   -1.1124   24.0506  -30.3318 Cl  0  0  0  0  0  0  0  0  0  0  0  0
   -5.1871   31.8542  -30.6778 C   0  0  0  0  0  0  0  0  0  0  0  0
   -3.9781   31.6716  -31.5468 C   0  0  0  0  0  0  0  0  0  0  0  0
   -6.1554   30.8245  -31.0242 N   0  0  0  0  0  0  0  0  0  0  0  0
   -1.4446   21.1319  -26.4788 H   0  0  0  0  0  0  0  0  0  0  0  0
   -0.2595   22.6624  -28.0140 H   0  0  0  0  0  0  0  0  0  0  0  0
   -3.8057   20.5606  -26.8877 H   0  0  0  0  0  0  0  0  0  0  0  0
   -4.2787   24.9180  -29.8177 H   0  0  0  0  0  0  0  0  0  0  0  0
   -5.8460   23.5005  -32.9171 H   0  0  0  0  0  0  0  0  0  0  0  0
   -7.3080   24.9353  -34.2998 H   0  0  0  0  0  0  0  0  0  0  0  0
   -7.5185   27.2105  -33.7628 H   0  0  0  0  0  0  0  0  0  0  0  0
   -5.0630   26.9061  -30.4304 H   0  0  0  0  0  0  0  0  0  0  0  0
   -4.2052   29.8690  -30.3905 H   0  0  0  0  0  0  0  0  0  0  0  0
   -4.9031   31.7575  -29.6195 H   0  0  0  0  0  0  0  0  0  0  0  0
   -5.6234   32.8490  -30.8509 H   0  0  0  0  0  0  0  0  0  0  0  0
   -3.2306   32.4407  -31.3023 H   0  0  0  0  0  0  0  0  0  0  0  0
   -3.5484   30.6742  -31.3721 H   0  0  0  0  0  0  0  0  0  0  0  0
   -4.2687   31.7657  -32.6035 H   0  0  0  0  0  0  0  0  0  0  0  0
  1  2  2  0  0  0  0
  1  6  1  0  0  0  0
  2  3  1  0  0  0  0
  3  4  2  0  0  0  0
  3 20  1  0  0  0  0
  4  5  1  0  0  0  0
  4  8  1  0  0  0  0
  5  6  2  0  0  0  0
  5  7  1  0  0  0  0
  8  9  2  0  0  0  0
  8 10  1  0  0  0  0
 10 11  1  0  0  0  0
 11 12  1  0  0  0  0
 11 16  2  0  0  0  0
 12 13  2  0  0  0  0
 13 14  1  0  0  0  0
 14 15  1  0  0  0  0
 15 16  1  0  0  0  0
 15 17  2  0  0  0  0
 17 18  1  0  0  0  0
 18 19  1  0  0  0  0
 18 23  2  0  0  0  0
 21 22  1  0  0  0  0
 21 23  1  0  0  0  0
  1 24  1  0  0  0  0
  2 25  1  0  0  0  0
  6 26  1  0  0  0  0
 10 27  1  0  0  0  0
 12 28  1  0  0  0  0
 13 29  1  0  0  0  0
 14 30  1  0  0  0  0
 16 31  1  0  0  0  0
 19 32  1  0  0  0  0
 21 33  1  0  0  0  0
 21 34  1  0  0  0  0
 22 35  1  0  0  0  0
 22 36  1  0  0  0  0
 22 37  1  0  0  0  0
M  END
> <r_user_dG.exp>
-10.53

$$$$
ejm_54
  -OEChem-05192314073D
 Structure written by MMmdl.
 37 38  0     0  0  0  0  0  0999 V2000
   -1.9612   21.5502  -27.3300 C   0  0  0  0  0  0  0  0  0  0  0  0
   -1.2942   22.4120  -28.1957 C   0  0  0  0  0  0  0  0  0  0  0  0
   -1.9550   22.9520  -29.2938 C   0  0  0  0  0  0  0  0  0  0  0  0
   -3.2998   22.6223  -29.5426 C   0  0  0  0  0  0  0  0  0  0  0  0
   -3.9689   21.7588  -28.6534 C   0  0  0  0  0  0  0  0  0  0  0  0
   -3.2917   21.2292  -27.5624 C   0  0  0  0  0  0  0  0  0  0  0  0
   -5.6403   21.3533  -28.9190 Cl  0  0  0  0  0  0  0  0  0  0  0  0
   -4.0401   23.1522  -30.7110 C   0  0  0  0  0  0  0  0  0  0  0  0
   -4.2265   22.4198  -31.6685 O   0  0  0  0  0  0  0  0  0  0  0  0
   -4.5133   24.4119  -30.6476 N   0  0  0  0  0  0  0  0  0  0  0  0
   -5.2869   25.1112  -31.5800 C   0  0  0  0  0  0  0  0  0  0  0  0
   -5.9620   24.5479  -32.6807 C   0  0  0  0  0  0  0  0  0  0  0  0
   -6.7806   25.3609  -33.4589 C   0  0  0  0  0  0  0  0  0  0  0  0
   -6.9234   26.6542  -33.1828 N   0  0  0  0  0  0  0  0  0  0  0  0
   -6.2984   27.2317  -32.1577 C   0  0  0  0  0  0  0  0  0  0  0  0
   -5.5070   26.4571  -31.3066 C   0  0  0  0  0  0  0  0  0  0  0  0
   -6.5391   28.5828  -31.8838 N   0  0  0  0  0  0  0  0  0  0  0  0
   -5.7134   29.4445  -31.2331 C   0  0  0  0  0  0  0  0  0  0  0  0
   -4.6156   29.1218  -30.8098 O   0  0  0  0  0  0  0  0  0  0  0  0
   -1.1124   24.0506  -30.3318 Cl  0  0  0  0  0  0  0  0  0  0  0  0
   -5.1871   31.8542  -30.6778 C   0  0  0  0  0  0  0  0  0  0  0  0
   -3.9781   31.6716  -31.5468 C   0  0  0  0  0  0  0  0  0  0  0  0
   -6.1554   30.8245  -31.0242 N   0  0  0  0  0  0  0  0  0  0  0  0
   -1.4446   21.1319  -26.4788 H   0  0  0  0  0  0  0  0  0  0  0  0
   -0.2595   22.6624  -28.0140 H   0  0  0  0  0  0  0  0  0  0  0  0
   -3.8057   20.5606  -26.8877 H   0  0  0  0  0  0  0  0  0  0  0  0
   -4.7104   22.8895  -32.3376 H   0  0  0  0  0  0  0  0  0  0  0  0
   -5.8460   23.5005  -32.9171 H   0  0  0  0  0  0  0  0  0  0  0  0
   -7.3080   24.9353  -34.2998 H   0  0  0  0  0  0  0  0  0  0  0  0
   -7.5185   27.2105  -33.7628 H   0  0  0  0  0  0  0  0  0  0  0  0
   -5.0630   26.9061  -30.4304 H   0  0  0  0  0  0  0  0  0  0  0  0
   -4.9031   31.7575  -29.6195 H   0  0  0  0  0  0  0  0  0  0  0  0
   -5.6234   32.8490  -30.8509 H   0  0  0  0  0  0  0  0  0  0  0  0
   -3.2306   32.4407  -31.3023 H   0  0  0  0  0  0  0  0  0  0  0  0
   -3.5484   30.6742  -31.3721 H   0  0  0  0  0  0  0  0  0  0  0  0
   -4.2687   31.7657  -32.6035 H   0  0  0  0  0  0  0  0  0  0  0  0
   -7.1227   31.0595  -31.1195 H   0  0  0  0  0  0  0  0  0  0  0  0
  1  2  2  0  0  0  0
  1  6  1  0  0  0  0
  2  3  1  0  0  0  0
  3  4  2  0  0  0  0
  3 20  1  0  0  0  0
  4  5  1  0  0  0  0
  4  8  1  0  0  0  0
  5  6  2  0  0  0  0
  5  7  1  0  0  0  0
  8  9  1  0  0  0  0
  8 10  2  0  0  0  0
 10 11  1  0  0  0  0
 11 12  1  0  0  0  0
 11 16  2  0  0  0  0
 12 13  2  0  0  0  0
 13 14  1  0  0  0  0
 14 15  1  0  0  0  0
 15 16  1  0  0  0  0
 15 17  2  0  0  0  0
 17 18  1  0  0  0  0
 18 19  2  0  0  0  0
 18 23  1  0  0  0  0
 21 22  1  0  0  0  0
 21 23  1  0  0  0  0
  1 24  1  0  0  0  0
  2 25  1  0  0  0  0
  6 26  1  0  0  0  0
  9 27  1  0  0  0  0
 12 28  1  0  0  0  0
 13 29  1  0  0  0  0
 14 30  1  0  0  0  0
 16 31  1  0  0  0  0
 21 32  1  0  0  0  0
 21 33  1  0  0  0  0
 22 34  1  0  0  0  0
 22 35  1  0  0  0  0
 22 36  1  0  0  0  0
 23 37  1  0  0  0  0
M  END
> <r_user_dG.exp>
-10.53

$$$$
ejm_54
  -OEChem-05192314073D
 Structure written by MMmdl.
 37 38  0     0  0  0  0  0  0999 V2000
   -1.9612   21.5502  -27.3300 C   0  0  0  0  0  0  0  0  0  0  0  0
   -1.2942   22.4120  -28.1957 C   0  0  0  0  0  0  0  0  0  0  0  0
   -1.9550   22.9520  -29.2938 C   0  0  0  0  0  0  0  0  0  0  0  0
   -3.2998   22.6223  -29.5426 C   0  0  0  0  0  0  0  0  0  0  0  0
   -3.9689   21.7588  -28.6534 C   0  0  0  0  0  0  0  0  0  0  0  0
   -3.2917   21.2292  -27.5624 C   0  0  0  0  0  0  0  0  0  0  0  0
   -5.6403   21.3533  -28.9190 Cl  0  0  0  0  0  0  0  0  0  0  0  0
   -4.0401   23.1522  -30.7110 C   0  0  0  0  0  0  0  0  0  0  0  0
   -4.2265   22.4198  -31.6685 O   0  0  0  0  0  0  0  0  0  0  0  0
   -4.5133   24.4119  -30.6476 N   0  0  0  0  0  0  0  0  0  0  0  0
   -5.2869   25.1112  -31.5800 C   0  0  0  0  0  0  0  0  0  0  0  0
   -5.9620   24.5479  -32.6807 C   0  0  0  0  0  0  0  0  0  0  0  0
   -6.7806   25.3609  -33.4589 C   0  0  0  0  0  0  0  0  0  0  0  0
   -6.9234   26.6542  -33.1828 N   0  0  0  0  0  0  0  0  0  0  0  0
   -6.2984   27.2317  -32.1577 C   0  0  0  0  0  0  0  0  0  0  0  0
   -5.5070   26.4571  -31.3066 C   0  0  0  0  0  0  0  0  0  0  0  0
   -6.5391   28.5828  -31.8838 N   0  0  0  0  0  0  0  0  0  0  0  0
   -5.7134   29.4445  -31.2331 C   0  0  0  0  0  0  0  0  0  0  0  0
   -4.6156   29.1218  -30.8098 O   0  0  0  0  0  0  0  0  0  0  0  0
   -1.1124   24.0506  -30.3318 Cl  0  0  0  0  0  0  0  0  0  0  0  0
   -5.1871   31.8542  -30.6778 C   0  0  0  0  0  0  0  0  0  0  0  0
   -3.9781   31.6716  -31.5468 C   0  0  0  0  0  0  0  0  0  0  0  0
   -6.1554   30.8245  -31.0242 N   0  0  0  0  0  0  0  0  0  0  0  0
   -1.4446   21.1319  -26.4788 H   0  0  0  0  0  0  0  0  0  0  0  0
   -0.2595   22.6624  -28.0140 H   0  0  0  0  0  0  0  0  0  0  0  0
   -3.8057   20.5606  -26.8877 H   0  0  0  0  0  0  0  0  0  0  0  0
   -5.8460   23.5005  -32.9171 H   0  0  0  0  0  0  0  0  0  0  0  0
   -7.3080   24.9353  -34.2998 H   0  0  0  0  0  0  0  0  0  0  0  0
   -7.5185   27.2105  -33.7628 H   0  0  0  0  0  0  0  0  0  0  0  0
   -5.0630   26.9061  -30.4304 H   0  0  0  0  0  0  0  0  0  0  0  0
   -7.4119   28.9540  -32.2007 H   0  0  0  0  0  0  0  0  0  0  0  0
   -4.2052   29.8690  -30.3905 H   0  0  0  0  0  0  0  0  0  0  0  0
   -4.9031   31.7575  -29.6195 H   0  0  0  0  0  0  0  0  0  0  0  0
   -5.6234   32.8490  -30.8509 H   0  0  0  0  0  0  0  0  0  0  0  0
   -3.2306   32.4407  -31.3023 H   0  0  0  0  0  0  0  0  0  0  0  0
   -3.5484   30.6742  -31.3721 H   0  0  0  0  0  0  0  0  0  0  0  0
   -4.2687   31.7657  -32.6035 H   0  0  0  0  0  0  0  0  0  0  0  0
  1  2  2  0  0  0  0
  1  6  1  0  0  0  0
  2  3  1  0  0  0  0
  3  4  2  0  0  0  0
  3 20  1  0  0  0  0
  4  5  1  0  0  0  0
  4  8  1  0  0  0  0
  5  6  2  0  0  0  0
  5  7  1  0  0  0  0
  8  9  2  0  0  0  0
  8 10  1  0  0  0  0
 10 11  2  0  0  0  0
 11 12  1  0  0  0  0
 11 16  1  0  0  0  0
 12 13  2  0  0  0  0
 13 14  1  0  0  0  0
 14 15  1  0  0  0  0
 15 16  2  0  0  0  0
 15 17  1  0  0  0  0
 17 18  1  0  0  0  0
 18 19  1  0  0  0  0
 18 23  2  0  0  0  0
 21 22  1  0  0  0  0
 21 23  1  0  0  0  0
  1 24  1  0  0  0  0
  2 25  1  0  0  0  0
  6 26  1  0  0  0  0
 12 27  1  0  0  0  0
 13 28  1  0  0  0  0
 14 29  1  0  0  0  0
 16 30  1  0  0  0  0
 17 31  1  0  0  0  0
 19 32  1  0  0  0  0
 21 33  1  0  0  0  0
 21 34  1  0  0  0  0
 22 35  1  0  0  0  0
 22 36  1  0  0  0  0
 22 37  1  0  0  0  0
M  END
> <r_user_dG.exp>
-10.53

$$$$
ejm_54
  -OEChem-05192314073D
 Structure written by MMmdl.
 37 38  0     0  0  0  0  0  0999 V2000
   -1.9612   21.5502  -27.3300 C   0  0  0  0  0  0  0  0  0  0  0  0
   -1.2942   22.4120  -28.1957 C   0  0  0  0  0  0  0  0  0  0  0  0
   -1.9550   22.9520  -29.2938 C   0  0  0  0  0  0  0  0  0  0  0  0
   -3.2998   22.6223  -29.5426 C   0  0  0  0  0  0  0  0  0  0  0  0
   -3.9689   21.7588  -28.6534 C   0  0  0  0  0  0  0  0  0  0  0  0
   -3.2917   21.2292  -27.5624 C   0  0  0  0  0  0  0  0  0  0  0  0
   -5.6403   21.3533  -28.9190 Cl  0  0  0  0  0  0  0  0  0  0  0  0
   -4.0401   23.1522  -30.7110 C   0  0  0  0  0  0  0  0  0  0  0  0
   -4.2265   22.4198  -31.6685 O   0  0  0  0  0  0  0  0  0  0  0  0
   -4.5133   24.4119  -30.6476 N   0  0  0  0  0  0  0  0  0  0  0  0
   -5.2869   25.1112  -31.5800 C   0  0  0  0  0  0  0  0  0  0  0  0
   -5.9620   24.5479  -32.6807 C   0  0  0  0  0  0  0  0  0  0  0  0
   -6.7806   25.3609  -33.4589 C   0  0  0  0  0  0  0  0  0  0  0  0
   -6.9234   26.6542  -33.1828 N   0  0  0  0  0  0  0  0  0  0  0  0
   -6.2984   27.2317  -32.1577 C   0  0  0  0  0  0  0  0  0  0  0  0
   -5.5070   26.4571  -31.3066 C   0  0  0  0  0  0  0  0  0  0  0  0
   -6.5391   28.5828  -31.8838 N   0  0  0  0  0  0  0  0  0  0  0  0
   -5.7134   29.4445  -31.2331 C   0  0  0  0  0  0  0  0  0  0  0  0
   -4.6156   29.1218  -30.8098 O   0  0  0  0  0  0  0  0  0  0  0  0
   -1.1124   24.0506  -30.3318 Cl  0  0  0  0  0  0  0  0  0  0  0  0
   -5.1871   31.8542  -30.6778 C   0  0  0  0  0  0  0  0  0  0  0  0
   -3.9781   31.6716  -31.5468 C   0  0  0  0  0  0  0  0  0  0  0  0
   -6.1554   30.8245  -31.0242 N   0  0  0  0  0  0  0  0  0  0  0  0
   -1.4446   21.1319  -26.4788 H   0  0  0  0  0  0  0  0  0  0  0  0
   -0.2595   22.6624  -28.0140 H   0  0  0  0  0  0  0  0  0  0  0  0
   -3.8057   20.5606  -26.8877 H   0  0  0  0  0  0  0  0  0  0  0  0
   -5.8460   23.5005  -32.9171 H   0  0  0  0  0  0  0  0  0  0  0  0
   -7.3080   24.9353  -34.2998 H   0  0  0  0  0  0  0  0  0  0  0  0
   -7.5185   27.2105  -33.7628 H   0  0  0  0  0  0  0  0  0  0  0  0
   -5.0630   26.9061  -30.4304 H   0  0  0  0  0  0  0  0  0  0  0  0
   -4.2052   29.8690  -30.3905 H   0  0  0  0  0  0  0  0  0  0  0  0
   -4.9031   31.7575  -29.6195 H   0  0  0  0  0  0  0  0  0  0  0  0
   -5.6234   32.8490  -30.8509 H   0  0  0  0  0  0  0  0  0  0  0  0
   -3.2306   32.4407  -31.3023 H   0  0  0  0  0  0  0  0  0  0  0  0
   -3.5484   30.6742  -31.3721 H   0  0  0  0  0  0  0  0  0  0  0  0
   -4.2687   31.7657  -32.6035 H   0  0  0  0  0  0  0  0  0  0  0  0
   -7.1227   31.0595  -31.1195 H   0  0  0  0  0  0  0  0  0  0  0  0
  1  2  2  0  0  0  0
  1  6  1  0  0  0  0
  2  3  1  0  0  0  0
  3  4  2  0  0  0  0
  3 20  1  0  0  0  0
  4  5  1  0  0  0  0
  4  8  1  0  0  0  0
  5  6  2  0  0  0  0
  5  7  1  0  0  0  0
  8  9  2  0  0  0  0
  8 10  1  0  0  0  0
 10 11  2  0  0  0  0
 11 12  1  0  0  0  0
 11 16  1  0  0  0  0
 12 13  2  0  0  0  0
 13 14  1  0  0  0  0
 14 15  1  0  0  0  0
 15 16  2  0  0  0  0
 15 17  1  0  0  0  0
 17 18  2  0  0  0  0
 18 19  1  0  0  0  0
 18 23  1  0  0  0  0
 21 22  1  0  0  0  0
 21 23  1  0  0  0  0
  1 24  1  0  0  0  0
  2 25  1  0  0  0  0
  6 26  1  0  0  0  0
 12 27  1  0  0  0  0
 13 28  1  0  0  0  0
 14 29  1  0  0  0  0
 16 30  1  0  0  0  0
 19 31  1  0  0  0  0
 21 32  1  0  0  0  0
 21 33  1  0  0  0  0
 22 34  1  0  0  0  0
 22 35  1  0  0  0  0
 22 36  1  0  0  0  0
 23 37  1  0  0  0  0
M  END
> <r_user_dG.exp>
-10.53

$$$$
ejm_54
  -OEChem-05192314073D
 Structure written by MMmdl.
 37 38  0     0  0  0  0  0  0999 V2000
   -1.9612   21.5502  -27.3300 C   0  0  0  0  0  0  0  0  0  0  0  0
   -1.2942   22.4120  -28.1957 C   0  0  0  0  0  0  0  0  0  0  0  0
   -1.9550   22.9520  -29.2938 C   0  0  0  0  0  0  0  0  0  0  0  0
   -3.2998   22.6223  -29.5426 C   0  0  0  0  0  0  0  0  0  0  0  0
   -3.9689   21.7588  -28.6534 C   0  0  0  0  0  0  0  0  0  0  0  0
   -3.2917   21.2292  -27.5624 C   0  0  0  0  0  0  0  0  0  0  0  0
   -5.6403   21.3533  -28.9190 Cl  0  0  0  0  0  0  0  0  0  0  0  0
   -4.0401   23.1522  -30.7110 C   0  0  0  0  0  0  0  0  0  0  0  0
   -4.2265   22.4198  -31.6685 O   0  0  0  0  0  0  0  0  0  0  0  0
   -4.5133   24.4119  -30.6476 N   0  0  0  0  0  0  0  0  0  0  0  0
   -5.2869   25.1112  -31.5800 C   0  0  0  0  0  0  0  0  0  0  0  0
   -5.9620   24.5479  -32.6807 C   0  0  0  0  0  0  0  0  0  0  0  0
   -6.7806   25.3609  -33.4589 C   0  0  0  0  0  0  0  0  0  0  0  0
   -6.9234   26.6542  -33.1828 N   0  0  0  0  0  0  0  0  0  0  0  0
   -6.2984   27.2317  -32.1577 C   0  0  0  0  0  0  0  0  0  0  0  0
   -5.5070   26.4571  -31.3066 C   0  0  0  0  0  0  0  0  0  0  0  0
   -6.5391   28.5828  -31.8838 N   0  0  0  0  0  0  0  0  0  0  0  0
   -5.7134   29.4445  -31.2331 C   0  0  0  0  0  0  0  0  0  0  0  0
   -4.6156   29.1218  -30.8098 O   0  0  0  0  0  0  0  0  0  0  0  0
   -1.1124   24.0506  -30.3318 Cl  0  0  0  0  0  0  0  0  0  0  0  0
   -5.1871   31.8542  -30.6778 C   0  0  0  0  0  0  0  0  0  0  0  0
   -3.9781   31.6716  -31.5468 C   0  0  0  0  0  0  0  0  0  0  0  0
   -6.1554   30.8245  -31.0242 N   0  0  0  0  0  0  0  0  0  0  0  0
   -1.4446   21.1319  -26.4788 H   0  0  0  0  0  0  0  0  0  0  0  0
   -0.2595   22.6624  -28.0140 H   0  0  0  0  0  0  0  0  0  0  0  0
   -3.8057   20.5606  -26.8877 H   0  0  0  0  0  0  0  0  0  0  0  0
   -4.7104   22.8895  -32.3376 H   0  0  0  0  0  0  0  0  0  0  0  0
   -5.8460   23.5005  -32.9171 H   0  0  0  0  0  0  0  0  0  0  0  0
   -7.3080   24.9353  -34.2998 H   0  0  0  0  0  0  0  0  0  0  0  0
   -7.5185   27.2105  -33.7628 H   0  0  0  0  0  0  0  0  0  0  0  0
   -5.0630   26.9061  -30.4304 H   0  0  0  0  0  0  0  0  0  0  0  0
   -4.2052   29.8690  -30.3905 H   0  0  0  0  0  0  0  0  0  0  0  0
   -4.9031   31.7575  -29.6195 H   0  0  0  0  0  0  0  0  0  0  0  0
   -5.6234   32.8490  -30.8509 H   0  0  0  0  0  0  0  0  0  0  0  0
   -3.2306   32.4407  -31.3023 H   0  0  0  0  0  0  0  0  0  0  0  0
   -3.5484   30.6742  -31.3721 H   0  0  0  0  0  0  0  0  0  0  0  0
   -4.2687   31.7657  -32.6035 H   0  0  0  0  0  0  0  0  0  0  0  0
  1  2  2  0  0  0  0
  1  6  1  0  0  0  0
  2  3  1  0  0  0  0
  3  4  2  0  0  0  0
  3 20  1  0  0  0  0
  4  5  1  0  0  0  0
  4  8  1  0  0  0  0
  5  6  2  0  0  0  0
  5  7  1  0  0  0  0
  8  9  1  0  0  0  0
  8 10  2  0  0  0  0
 10 11  1  0  0  0  0
 11 12  1  0  0  0  0
 11 16  2  0  0  0  0
 12 13  2  0  0  0  0
 13 14  1  0  0  0  0
 14 15  1  0  0  0  0
 15 16  1  0  0  0  0
 15 17  2  0  0  0  0
 17 18  1  0  0  0  0
 18 19  1  0  0  0  0
 18 23  2  0  0  0  0
 21 22  1  0  0  0  0
 21 23  1  0  0  0  0
  1 24  1  0  0  0  0
  2 25  1  0  0  0  0
  6 26  1  0  0  0  0
  9 27  1  0  0  0  0
 12 28  1  0  0  0  0
 13 29  1  0  0  0  0
 14 30  1  0  0  0  0
 16 31  1  0  0  0  0
 19 32  1  0  0  0  0
 21 33  1  0  0  0  0
 21 34  1  0  0  0  0
 22 35  1  0  0  0  0
 22 36  1  0  0  0  0
 22 37  1  0  0  0  0
M  END
> <r_user_dG.exp>
-10.53

$$$$
ejm_54
  -OEChem-05192314073D
 Structure written by MMmdl.
 37 38  0     0  0  0  0  0  0999 V2000
   -1.9612   21.5502  -27.3300 C   0  0  0  0  0  0  0  0  0  0  0  0
   -1.2942   22.4120  -28.1957 C   0  0  0  0  0  0  0  0  0  0  0  0
   -1.9550   22.9520  -29.2938 C   0  0  0  0  0  0  0  0  0  0  0  0
   -3.2998   22.6223  -29.5426 C   0  0  0  0  0  0  0  0  0  0  0  0
   -3.9689   21.7588  -28.6534 C   0  0  0  0  0  0  0  0  0  0  0  0
   -3.2917   21.2292  -27.5624 C   0  0  0  0  0  0  0  0  0  0  0  0
   -5.6403   21.3533  -28.9190 Cl  0  0  0  0  0  0  0  0  0  0  0  0
   -4.0401   23.1522  -30.7110 C   0  0  0  0  0  0  0  0  0  0  0  0
   -4.2265   22.4198  -31.6685 O   0  0  0  0  0  0  0  0  0  0  0  0
   -4.5133   24.4119  -30.6476 N   0  0  0  0  0  0  0  0  0  0  0  0
   -5.2869   25.1112  -31.5800 C   0  0  0  0  0  0  0  0  0  0  0  0
   -5.9620   24.5479  -32.6807 C   0  0  0  0  0  0  0  0  0  0  0  0
   -6.7806   25.3609  -33.4589 C   0  0  0  0  0  0  0  0  0  0  0  0
   -6.9234   26.6542  -33.1828 N   0  0  0  0  0  0  0  0  0  0  0  0
   -6.2984   27.2317  -32.1577 C   0  0  0  0  0  0  0  0  0  0  0  0
   -5.5070   26.4571  -31.3066 C   0  0  0  0  0  0  0  0  0  0  0  0
   -6.5391   28.5828  -31.8838 N   0  0  0  0  0  0  0  0  0  0  0  0
   -5.7134   29.4445  -31.2331 C   0  0  0  0  0  0  0  0  0  0  0  0
   -4.6156   29.1218  -30.8098 O   0  0  0  0  0  0  0  0  0  0  0  0
   -1.1124   24.0506  -30.3318 Cl  0  0  0  0  0  0  0  0  0  0  0  0
   -5.1871   31.8542  -30.6778 C   0  0  0  0  0  0  0  0  0  0  0  0
   -3.9781   31.6716  -31.5468 C   0  0  0  0  0  0  0  0  0  0  0  0
   -6.1554   30.8245  -31.0242 N   0  0  0  0  0  0  0  0  0  0  0  0
   -1.4446   21.1319  -26.4788 H   0  0  0  0  0  0  0  0  0  0  0  0
   -0.2595   22.6624  -28.0140 H   0  0  0  0  0  0  0  0  0  0  0  0
   -3.8057   20.5606  -26.8877 H   0  0  0  0  0  0  0  0  0  0  0  0
   -5.1953   24.1288  -33.3489 H   0  0  0  0  0  0  0  0  0  0  0  0
   -6.5923   23.7352  -32.2906 H   0  0  0  0  0  0  0  0  0  0  0  0
   -7.3080   24.9353  -34.2998 H   0  0  0  0  0  0  0  0  0  0  0  0
   -5.9737   26.5047  -30.3117 H   0  0  0  0  0  0  0  0  0  0  0  0
   -4.5181   26.9376  -31.2711 H   0  0  0  0  0  0  0  0  0  0  0  0
   -4.9031   31.7575  -29.6195 H   0  0  0  0  0  0  0  0  0  0  0  0
   -5.6234   32.8490  -30.8509 H   0  0  0  0  0  0  0  0  0  0  0  0
   -3.2306   32.4407  -31.3023 H   0  0  0  0  0  0  0  0  0  0  0  0
   -3.5484   30.6742  -31.3721 H   0  0  0  0  0  0  0  0  0  0  0  0
   -4.2687   31.7657  -32.6035 H   0  0  0  0  0  0  0  0  0  0  0  0
   -7.1227   31.0595  -31.1195 H   0  0  0  0  0  0  0  0  0  0  0  0
  1  2  2  0  0  0  0
  1  6  1  0  0  0  0
  2  3  1  0  0  0  0
  3  4  2  0  0  0  0
  3 20  1  0  0  0  0
  4  5  1  0  0  0  0
  4  8  1  0  0  0  0
  5  6  2  0  0  0  0
  5  7  1  0  0  0  0
  8  9  2  0  0  0  0
  8 10  1  0  0  0  0
 10 11  2  0  0  0  0
 11 12  1  0  0  0  0
 11 16  1  0  0  0  0
 12 13  1  0  0  0  0
 13 14  2  0  0  0  0
 14 15  1  0  0  0  0
 15 16  1  0  0  0  0
 15 17  2  0  0  0  0
 17 18  1  0  0  0  0
 18 19  2  0  0  0  0
 18 23  1  0  0  0  0
 21 22  1  0  0  0  0
 21 23  1  0  0  0  0
  1 24  1  0  0  0  0
  2 25  1  0  0  0  0
  6 26  1  0  0  0  0
 12 27  1  0  0  0  0
 12 28  1  0  0  0  0
 13 29  1  0  0  0  0
 16 30  1  0  0  0  0
 16 31  1  0  0  0  0
 21 32  1  0  0  0  0
 21 33  1  0  0  0  0
 22 34  1  0  0  0  0
 22 35  1  0  0  0  0
 22 36  1  0  0  0  0
 23 37  1  0  0  0  0
M  END
> <r_user_dG.exp>
-10.53

$$$$
ejm_54
  -OEChem-05192314073D
 Structure written by MMmdl.
 37 38  0     0  0  0  0  0  0999 V2000
   -1.9612   21.5502  -27.3300 C   0  0  0  0  0  0  0  0  0  0  0  0
   -1.2942   22.4120  -28.1957 C   0  0  0  0  0  0  0  0  0  0  0  0
   -1.9550   22.9520  -29.2938 C   0  0  0  0  0  0  0  0  0  0  0  0
   -3.2998   22.6223  -29.5426 C   0  0  0  0  0  0  0  0  0  0  0  0
   -3.9689   21.7588  -28.6534 C   0  0  0  0  0  0  0  0  0  0  0  0
   -3.2917   21.2292  -27.5624 C   0  0  0  0  0  0  0  0  0  0  0  0
   -5.6403   21.3533  -28.9190 Cl  0  0  0  0  0  0  0  0  0  0  0  0
   -4.0401   23.1522  -30.7110 C   0  0  0  0  0  0  0  0  0  0  0  0
   -4.2265   22.4198  -31.6685 O   0  0  0  0  0  0  0  0  0  0  0  0
   -4.5133   24.4119  -30.6476 N   0  0  0  0  0  0  0  0  0  0  0  0
   -5.2869   25.1112  -31.5800 C   0  0  0  0  0  0  0  0  0  0  0  0
   -5.9620   24.5479  -32.6807 C   0  0  0  0  0  0  0  0  0  0  0  0
   -6.7806   25.3609  -33.4589 C   0  0  0  0  0  0  0  0  0  0  0  0
   -6.9234   26.6542  -33.1828 N   0  0  0  0  0  0  0  0  0  0  0  0
   -6.2984   27.2317  -32.1577 C   0  0  0  0  0  0  0  0  0  0  0  0
   -5.5070   26.4571  -31.3066 C   0  0  0  0  0  0  0  0  0  0  0  0
   -6.5391   28.5828  -31.8838 N   0  0  0  0  0  0  0  0  0  0  0  0
   -5.7134   29.4445  -31.2331 C   0  0  0  0  0  0  0  0  0  0  0  0
   -4.6156   29.1218  -30.8098 O   0  0  0  0  0  0  0  0  0  0  0  0
   -1.1124   24.0506  -30.3318 Cl  0  0  0  0  0  0  0  0  0  0  0  0
   -5.1871   31.8542  -30.6778 C   0  0  0  0  0  0  0  0  0  0  0  0
   -3.9781   31.6716  -31.5468 C   0  0  0  0  0  0  0  0  0  0  0  0
   -6.1554   30.8245  -31.0242 N   0  0  0  0  0  0  0  0  0  0  0  0
   -1.4446   21.1319  -26.4788 H   0  0  0  0  0  0  0  0  0  0  0  0
   -0.2595   22.6624  -28.0140 H   0  0  0  0  0  0  0  0  0  0  0  0
   -3.8057   20.5606  -26.8877 H   0  0  0  0  0  0  0  0  0  0  0  0
   -5.1953   24.1288  -33.3489 H   0  0  0  0  0  0  0  0  0  0  0  0
   -6.5923   23.7352  -32.2906 H   0  0  0  0  0  0  0  0  0  0  0  0
   -7.3080   24.9353  -34.2998 H   0  0  0  0  0  0  0  0  0  0  0  0
   -5.9737   26.5047  -30.3117 H   0  0  0  0  0  0  0  0  0  0  0  0
   -4.5181   26.9376  -31.2711 H   0  0  0  0  0  0  0  0  0  0  0  0
   -4.2052   29.8690  -30.3905 H   0  0  0  0  0  0  0  0  0  0  0  0
   -4.9031   31.7575  -29.6195 H   0  0  0  0  0  0  0  0  0  0  0  0
   -5.6234   32.8490  -30.8509 H   0  0  0  0  0  0  0  0  0  0  0  0
   -3.2306   32.4407  -31.3023 H   0  0  0  0  0  0  0  0  0  0  0  0
   -3.5484   30.6742  -31.3721 H   0  0  0  0  0  0  0  0  0  0  0  0
   -4.2687   31.7657  -32.6035 H   0  0  0  0  0  0  0  0  0  0  0  0
  1  2  2  0  0  0  0
  1  6  1  0  0  0  0
  2  3  1  0  0  0  0
  3  4  2  0  0  0  0
  3 20  1  0  0  0  0
  4  5  1  0  0  0  0
  4  8  1  0  0  0  0
  5  6  2  0  0  0  0
  5  7  1  0  0  0  0
  8  9  2  0  0  0  0
  8 10  1  0  0  0  0
 10 11  2  0  0  0  0
 11 12  1  0  0  0  0
 11 16  1  0  0  0  0
 12 13  1  0  0  0  0
 13 14  2  0  0  0  0
 14 15  1  0  0  0  0
 15 16  1  0  0  0  0
 15 17  2  0  0  0  0
 17 18  1  0  0  0  0
 18 19  1  0  0  0  0
 18 23  2  0  0  0  0
 21 22  1  0  0  0  0
 21 23  1  0  0  0  0
  1 24  1  0  0  0  0
  2 25  1  0  0  0  0
  6 26  1  0  0  0  0
 12 27  1  0  0  0  0
 12 28  1  0  0  0  0
 13 29  1  0  0  0  0
 16 30  1  0  0  0  0
 16 31  1  0  0  0  0
 19 32  1  0  0  0  0
 21 33  1  0  0  0  0
 21 34  1  0  0  0  0
 22 35  1  0  0  0  0
 22 36  1  0  0  0  0
 22 37  1  0  0  0  0
M  END
> <r_user_dG.exp>
-10.53

$$$$
ejm_54
  -OEChem-05192314073D
 Structure written by MMmdl.
 37 38  0     0  0  0  0  0  0999 V2000
   -1.9612   21.5502  -27.3300 C   0  0  0  0  0  0  0  0  0  0  0  0
   -1.2942   22.4120  -28.1957 C   0  0  0  0  0  0  0  0  0  0  0  0
   -1.9550   22.9520  -29.2938 C   0  0  0  0  0  0  0  0  0  0  0  0
   -3.2998   22.6223  -29.5426 C   0  0  0  0  0  0  0  0  0  0  0  0
   -3.9689   21.7588  -28.6534 C   0  0  0  0  0  0  0  0  0  0  0  0
   -3.2917   21.2292  -27.5624 C   0  0  0  0  0  0  0  0  0  0  0  0
   -5.6403   21.3533  -28.9190 Cl  0  0  0  0  0  0  0  0  0  0  0  0
   -4.0401   23.1522  -30.7110 C   0  0  0  0  0  0  0  0  0  0  0  0
   -4.2265   22.4198  -31.6685 O   0  0  0  0  0  0  0  0  0  0  0  0
   -4.5133   24.4119  -30.6476 N   0  0  0  0  0  0  0  0  0  0  0  0
   -5.2869   25.1112  -31.5800 C   0  0  0  0  0  0  0  0  0  0  0  0
   -5.9620   24.5479  -32.6807 C   0  0  0  0  0  0  0  0  0  0  0  0
   -6.7806   25.3609  -33.4589 C   0  0  0  0  0  0  0  0  0  0  0  0
   -6.9234   26.6542  -33.1828 N   0  0  0  0  0  0  0  0  0  0  0  0
   -6.2984   27.2317  -32.1577 C   0  0  0  0  0  0  0  0  0  0  0  0
   -5.5070   26.4571  -31.3066 C   0  0  0  0  0  0  0  0  0  0  0  0
   -6.5391   28.5828  -31.8838 N   0  0  0  0  0  0  0  0  0  0  0  0
   -5.7134   29.4445  -31.2331 C   0  0  0  0  0  0  0  0  0  0  0  0
   -4.6156   29.1218  -30.8098 O   0  0  0  0  0  0  0  0  0  0  0  0
   -1.1124   24.0506  -30.3318 Cl  0  0  0  0  0  0  0  0  0  0  0  0
   -5.1871   31.8542  -30.6778 C   0  0  0  0  0  0  0  0  0  0  0  0
   -3.9781   31.6716  -31.5468 C   0  0  0  0  0  0  0  0  0  0  0  0
   -6.1554   30.8245  -31.0242 N   0  0  0  0  0  0  0  0  0  0  0  0
   -1.4446   21.1319  -26.4788 H   0  0  0  0  0  0  0  0  0  0  0  0
   -0.2595   22.6624  -28.0140 H   0  0  0  0  0  0  0  0  0  0  0  0
   -3.8057   20.5606  -26.8877 H   0  0  0  0  0  0  0  0  0  0  0  0
   -4.2787   24.9180  -29.8177 H   0  0  0  0  0  0  0  0  0  0  0  0
   -5.1953   24.1288  -33.3489 H   0  0  0  0  0  0  0  0  0  0  0  0
   -6.5923   23.7352  -32.2906 H   0  0  0  0  0  0  0  0  0  0  0  0
   -7.3080   24.9353  -34.2998 H   0  0  0  0  0  0  0  0  0  0  0  0
   -5.0630   26.9061  -30.4304 H   0  0  0  0  0  0  0  0  0  0  0  0
   -4.9031   31.7575  -29.6195 H   0  0  0  0  0  0  0  0  0  0  0  0
   -5.6234   32.8490  -30.8509 H   0  0  0  0  0  0  0  0  0  0  0  0
   -3.2306   32.4407  -31.3023 H   0  0  0  0  0  0  0  0  0  0  0  0
   -3.5484   30.6742  -31.3721 H   0  0  0  0  0  0  0  0  0  0  0  0
   -4.2687   31.7657  -32.6035 H   0  0  0  0  0  0  0  0  0  0  0  0
   -7.1227   31.0595  -31.1195 H   0  0  0  0  0  0  0  0  0  0  0  0
  1  2  2  0  0  0  0
  1  6  1  0  0  0  0
  2  3  1  0  0  0  0
  3  4  2  0  0  0  0
  3 20  1  0  0  0  0
  4  5  1  0  0  0  0
  4  8  1  0  0  0  0
  5  6  2  0  0  0  0
  5  7  1  0  0  0  0
  8  9  2  0  0  0  0
  8 10  1  0  0  0  0
 10 11  1  0  0  0  0
 11 12  1  0  0  0  0
 11 16  2  0  0  0  0
 12 13  1  0  0  0  0
 13 14  2  0  0  0  0
 14 15  1  0  0  0  0
 15 16  1  0  0  0  0
 15 17  2  0  0  0  0
 17 18  1  0  0  0  0
 18 19  2  0  0  0  0
 18 23  1  0  0  0  0
 21 22  1  0  0  0  0
 21 23  1  0  0  0  0
  1 24  1  0  0  0  0
  2 25  1  0  0  0  0
  6 26  1  0  0  0  0
 10 27  1  0  0  0  0
 12 28  1  0  0  0  0
 12 29  1  0  0  0  0
 13 30  1  0  0  0  0
 16 31  1  0  0  0  0
 21 32  1  0  0  0  0
 21 33  1  0  0  0  0
 22 34  1  0  0  0  0
 22 35  1  0  0  0  0
 22 36  1  0  0  0  0
 23 37  1  0  0  0  0
M  END
> <r_user_dG.exp>
-10.53

$$$$
ejm_54
  -OEChem-05192314073D
 Structure written by MMmdl.
 37 38  0     0  0  0  0  0  0999 V2000
   -1.9612   21.5502  -27.3300 C   0  0  0  0  0  0  0  0  0  0  0  0
   -1.2942   22.4120  -28.1957 C   0  0  0  0  0  0  0  0  0  0  0  0
   -1.9550   22.9520  -29.2938 C   0  0  0  0  0  0  0  0  0  0  0  0
   -3.2998   22.6223  -29.5426 C   0  0  0  0  0  0  0  0  0  0  0  0
   -3.9689   21.7588  -28.6534 C   0  0  0  0  0  0  0  0  0  0  0  0
   -3.2917   21.2292  -27.5624 C   0  0  0  0  0  0  0  0  0  0  0  0
   -5.6403   21.3533  -28.9190 Cl  0  0  0  0  0  0  0  0  0  0  0  0
   -4.0401   23.1522  -30.7110 C   0  0  0  0  0  0  0  0  0  0  0  0
   -4.2265   22.4198  -31.6685 O   0  0  0  0  0  0  0  0  0  0  0  0
   -4.5133   24.4119  -30.6476 N   0  0  0  0  0  0  0  0  0  0  0  0
   -5.2869   25.1112  -31.5800 C   0  0  0  0  0  0  0  0  0  0  0  0
   -5.9620   24.5479  -32.6807 C   0  0  0  0  0  0  0  0  0  0  0  0
   -6.7806   25.3609  -33.4589 C   0  0  0  0  0  0  0  0  0  0  0  0
   -6.9234   26.6542  -33.1828 N   0  0  0  0  0  0  0  0  0  0  0  0
   -6.2984   27.2317  -32.1577 C   0  0  0  0  0  0  0  0  0  0  0  0
   -5.5070   26.4571  -31.3066 C   0  0  0  0  0  0  0  0  0  0  0  0
   -6.5391   28.5828  -31.8838 N   0  0  0  0  0  0  0  0  0  0  0  0
   -5.7134   29.4445  -31.2331 C   0  0  0  0  0  0  0  0  0  0  0  0
   -4.6156   29.1218  -30.8098 O   0  0  0  0  0  0  0  0  0  0  0  0
   -1.1124   24.0506  -30.3318 Cl  0  0  0  0  0  0  0  0  0  0  0  0
   -5.1871   31.8542  -30.6778 C   0  0  0  0  0  0  0  0  0  0  0  0
   -3.9781   31.6716  -31.5468 C   0  0  0  0  0  0  0  0  0  0  0  0
   -6.1554   30.8245  -31.0242 N   0  0  0  0  0  0  0  0  0  0  0  0
   -1.4446   21.1319  -26.4788 H   0  0  0  0  0  0  0  0  0  0  0  0
   -0.2595   22.6624  -28.0140 H   0  0  0  0  0  0  0  0  0  0  0  0
   -3.8057   20.5606  -26.8877 H   0  0  0  0  0  0  0  0  0  0  0  0
   -5.1953   24.1288  -33.3489 H   0  0  0  0  0  0  0  0  0  0  0  0
   -6.5923   23.7352  -32.2906 H   0  0  0  0  0  0  0  0  0  0  0  0
   -7.3080   24.9353  -34.2998 H   0  0  0  0  0  0  0  0  0  0  0  0
   -5.0630   26.9061  -30.4304 H   0  0  0  0  0  0  0  0  0  0  0  0
   -7.4119   28.9540  -32.2007 H   0  0  0  0  0  0  0  0  0  0  0  0
   -4.9031   31.7575  -29.6195 H   0  0  0  0  0  0  0  0  0  0  0  0
   -5.6234   32.8490  -30.8509 H   0  0  0  0  0  0  0  0  0  0  0  0
   -3.2306   32.4407  -31.3023 H   0  0  0  0  0  0  0  0  0  0  0  0
   -3.5484   30.6742  -31.3721 H   0  0  0  0  0  0  0  0  0  0  0  0
   -4.2687   31.7657  -32.6035 H   0  0  0  0  0  0  0  0  0  0  0  0
   -7.1227   31.0595  -31.1195 H   0  0  0  0  0  0  0  0  0  0  0  0
  1  2  2  0  0  0  0
  1  6  1  0  0  0  0
  2  3  1  0  0  0  0
  3  4  2  0  0  0  0
  3 20  1  0  0  0  0
  4  5  1  0  0  0  0
  4  8  1  0  0  0  0
  5  6  2  0  0  0  0
  5  7  1  0  0  0  0
  8  9  2  0  0  0  0
  8 10  1  0  0  0  0
 10 11  2  0  0  0  0
 11 12  1  0  0  0  0
 11 16  1  0  0  0  0
 12 13  1  0  0  0  0
 13 14  2  0  0  0  0
 14 15  1  0  0  0  0
 15 16  2  0  0  0  0
 15 17  1  0  0  0  0
 17 18  1  0  0  0  0
 18 19  2  0  0  0  0
 18 23  1  0  0  0  0
 21 22  1  0  0  0  0
 21 23  1  0  0  0  0
  1 24  1  0  0  0  0
  2 25  1  0  0  0  0
  6 26  1  0  0  0  0
 12 27  1  0  0  0  0
 12 28  1  0  0  0  0
 13 29  1  0  0  0  0
 16 30  1  0  0  0  0
 17 31  1  0  0  0  0
 21 32  1  0  0  0  0
 21 33  1  0  0  0  0
 22 34  1  0  0  0  0
 22 35  1  0  0  0  0
 22 36  1  0  0  0  0
 23 37  1  0  0  0  0
M  END
> <r_user_dG.exp>
-10.53

$$$$
ejm_54
  -OEChem-05192314073D
 Structure written by MMmdl.
 37 38  0     0  0  0  0  0  0999 V2000
   -1.9612   21.5502  -27.3300 C   0  0  0  0  0  0  0  0  0  0  0  0
   -1.2942   22.4120  -28.1957 C   0  0  0  0  0  0  0  0  0  0  0  0
   -1.9550   22.9520  -29.2938 C   0  0  0  0  0  0  0  0  0  0  0  0
   -3.2998   22.6223  -29.5426 C   0  0  0  0  0  0  0  0  0  0  0  0
   -3.9689   21.7588  -28.6534 C   0  0  0  0  0  0  0  0  0  0  0  0
   -3.2917   21.2292  -27.5624 C   0  0  0  0  0  0  0  0  0  0  0  0
   -5.6403   21.3533  -28.9190 Cl  0  0  0  0  0  0  0  0  0  0  0  0
   -4.0401   23.1522  -30.7110 C   0  0  0  0  0  0  0  0  0  0  0  0
   -4.2265   22.4198  -31.6685 O   0  0  0  0  0  0  0  0  0  0  0  0
   -4.5133   24.4119  -30.6476 N   0  0  0  0  0  0  0  0  0  0  0  0
   -5.2869   25.1112  -31.5800 C   0  0  0  0  0  0  0  0  0  0  0  0
   -5.9620   24.5479  -32.6807 C   0  0  0  0  0  0  0  0  0  0  0  0
   -6.7806   25.3609  -33.4589 C   0  0  0  0  0  0  0  0  0  0  0  0
   -6.9234   26.6542  -33.1828 N   0  0  0  0  0  0  0  0  0  0  0  0
   -6.2984   27.2317  -32.1577 C   0  0  0  0  0  0  0  0  0  0  0  0
   -5.5070   26.4571  -31.3066 C   0  0  0  0  0  0  0  0  0  0  0  0
   -6.5391   28.5828  -31.8838 N   0  0  0  0  0  0  0  0  0  0  0  0
   -5.7134   29.4445  -31.2331 C   0  0  0  0  0  0  0  0  0  0  0  0
   -4.6156   29.1218  -30.8098 O   0  0  0  0  0  0  0  0  0  0  0  0
   -1.1124   24.0506  -30.3318 Cl  0  0  0  0  0  0  0  0  0  0  0  0
   -5.1871   31.8542  -30.6778 C   0  0  0  0  0  0  0  0  0  0  0  0
   -3.9781   31.6716  -31.5468 C   0  0  0  0  0  0  0  0  0  0  0  0
   -6.1554   30.8245  -31.0242 N   0  0  0  0  0  0  0  0  0  0  0  0
   -1.4446   21.1319  -26.4788 H   0  0  0  0  0  0  0  0  0  0  0  0
   -0.2595   22.6624  -28.0140 H   0  0  0  0  0  0  0  0  0  0  0  0
   -3.8057   20.5606  -26.8877 H   0  0  0  0  0  0  0  0  0  0  0  0
   -4.2787   24.9180  -29.8177 H   0  0  0  0  0  0  0  0  0  0  0  0
   -5.8460   23.5005  -32.9171 H   0  0  0  0  0  0  0  0  0  0  0  0
   -7.3080   24.9353  -34.2998 H   0  0  0  0  0  0  0  0  0  0  0  0
   -5.9737   26.5047  -30.3117 H   0  0  0  0  0  0  0  0  0  0  0  0
   -4.5181   26.9376  -31.2711 H   0  0  0  0  0  0  0  0  0  0  0  0
   -4.9031   31.7575  -29.6195 H   0  0  0  0  0  0  0  0  0  0  0  0
   -5.6234   32.8490  -30.8509 H   0  0  0  0  0  0  0  0  0  0  0  0
   -3.2306   32.4407  -31.3023 H   0  0  0  0  0  0  0  0  0  0  0  0
   -3.5484   30.6742  -31.3721 H   0  0  0  0  0  0  0  0  0  0  0  0
   -4.2687   31.7657  -32.6035 H   0  0  0  0  0  0  0  0  0  0  0  0
   -7.1227   31.0595  -31.1195 H   0  0  0  0  0  0  0  0  0  0  0  0
  1  2  2  0  0  0  0
  1  6  1  0  0  0  0
  2  3  1  0  0  0  0
  3  4  2  0  0  0  0
  3 20  1  0  0  0  0
  4  5  1  0  0  0  0
  4  8  1  0  0  0  0
  5  6  2  0  0  0  0
  5  7  1  0  0  0  0
  8  9  2  0  0  0  0
  8 10  1  0  0  0  0
 10 11  1  0  0  0  0
 11 12  2  0  0  0  0
 11 16  1  0  0  0  0
 12 13  1  0  0  0  0
 13 14  2  0  0  0  0
 14 15  1  0  0  0  0
 15 16  1  0  0  0  0
 15 17  2  0  0  0  0
 17 18  1  0  0  0  0
 18 19  2  0  0  0  0
 18 23  1  0  0  0  0
 21 22  1  0  0  0  0
 21 23  1  0  0  0  0
  1 24  1  0  0  0  0
  2 25  1  0  0  0  0
  6 26  1  0  0  0  0
 10 27  1  0  0  0  0
 12 28  1  0  0  0  0
 13 29  1  0  0  0  0
 16 30  1  0  0  0  0
 16 31  1  0  0  0  0
 21 32  1  0  0  0  0
 21 33  1  0  0  0  0
 22 34  1  0  0  0  0
 22 35  1  0  0  0  0
 22 36  1  0  0  0  0
 23 37  1  0  0  0  0
M  END
> <r_user_dG.exp>
-10.53

$$$$
ejm_54
  -OEChem-05192314073D
 Structure written by MMmdl.
 37 38  0     0  0  0  0  0  0999 V2000
   -1.9612   21.5502  -27.3300 C   0  0  0  0  0  0  0  0  0  0  0  0
   -1.2942   22.4120  -28.1957 C   0  0  0  0  0  0  0  0  0  0  0  0
   -1.9550   22.9520  -29.2938 C   0  0  0  0  0  0  0  0  0  0  0  0
   -3.2998   22.6223  -29.5426 C   0  0  0  0  0  0  0  0  0  0  0  0
   -3.9689   21.7588  -28.6534 C   0  0  0  0  0  0  0  0  0  0  0  0
   -3.2917   21.2292  -27.5624 C   0  0  0  0  0  0  0  0  0  0  0  0
   -5.6403   21.3533  -28.9190 Cl  0  0  0  0  0  0  0  0  0  0  0  0
   -4.0401   23.1522  -30.7110 C   0  0  0  0  0  0  0  0  0  0  0  0
   -4.2265   22.4198  -31.6685 O   0  0  0  0  0  0  0  0  0  0  0  0
   -4.5133   24.4119  -30.6476 N   0  0  0  0  0  0  0  0  0  0  0  0
   -5.2869   25.1112  -31.5800 C   0  0  0  0  0  0  0  0  0  0  0  0
   -5.9620   24.5479  -32.6807 C   0  0  0  0  0  0  0  0  0  0  0  0
   -6.7806   25.3609  -33.4589 C   0  0  0  0  0  0  0  0  0  0  0  0
   -6.9234   26.6542  -33.1828 N   0  0  0  0  0  0  0  0  0  0  0  0
   -6.2984   27.2317  -32.1577 C   0  0  0  0  0  0  0  0  0  0  0  0
   -5.5070   26.4571  -31.3066 C   0  0  0  0  0  0  0  0  0  0  0  0
   -6.5391   28.5828  -31.8838 N   0  0  0  0  0  0  0  0  0  0  0  0
   -5.7134   29.4445  -31.2331 C   0  0  0  0  0  0  0  0  0  0  0  0
   -4.6156   29.1218  -30.8098 O   0  0  0  0  0  0  0  0  0  0  0  0
   -1.1124   24.0506  -30.3318 Cl  0  0  0  0  0  0  0  0  0  0  0  0
   -5.1871   31.8542  -30.6778 C   0  0  0  0  0  0  0  0  0  0  0  0
   -3.9781   31.6716  -31.5468 C   0  0  0  0  0  0  0  0  0  0  0  0
   -6.1554   30.8245  -31.0242 N   0  0  0  0  0  0  0  0  0  0  0  0
   -1.4446   21.1319  -26.4788 H   0  0  0  0  0  0  0  0  0  0  0  0
   -0.2595   22.6624  -28.0140 H   0  0  0  0  0  0  0  0  0  0  0  0
   -3.8057   20.5606  -26.8877 H   0  0  0  0  0  0  0  0  0  0  0  0
   -5.8460   23.5005  -32.9171 H   0  0  0  0  0  0  0  0  0  0  0  0
   -7.3080   24.9353  -34.2998 H   0  0  0  0  0  0  0  0  0  0  0  0
   -5.9737   26.5047  -30.3117 H   0  0  0  0  0  0  0  0  0  0  0  0
   -4.5181   26.9376  -31.2711 H   0  0  0  0  0  0  0  0  0  0  0  0
   -7.4119   28.9540  -32.2007 H   0  0  0  0  0  0  0  0  0  0  0  0
   -4.9031   31.7575  -29.6195 H   0  0  0  0  0  0  0  0  0  0  0  0
   -5.6234   32.8490  -30.8509 H   0  0  0  0  0  0  0  0  0  0  0  0
   -3.2306   32.4407  -31.3023 H   0  0  0  0  0  0  0  0  0  0  0  0
   -3.5484   30.6742  -31.3721 H   0  0  0  0  0  0  0  0  0  0  0  0
   -4.2687   31.7657  -32.6035 H   0  0  0  0  0  0  0  0  0  0  0  0
   -7.1227   31.0595  -31.1195 H   0  0  0  0  0  0  0  0  0  0  0  0
  1  2  2  0  0  0  0
  1  6  1  0  0  0  0
  2  3  1  0  0  0  0
  3  4  2  0  0  0  0
  3 20  1  0  0  0  0
  4  5  1  0  0  0  0
  4  8  1  0  0  0  0
  5  6  2  0  0  0  0
  5  7  1  0  0  0  0
  8  9  2  0  0  0  0
  8 10  1  0  0  0  0
 10 11  2  0  0  0  0
 11 12  1  0  0  0  0
 11 16  1  0  0  0  0
 12 13  2  0  0  0  0
 13 14  1  0  0  0  0
 14 15  2  0  0  0  0
 15 16  1  0  0  0  0
 15 17  1  0  0  0  0
 17 18  1  0  0  0  0
 18 19  2  0  0  0  0
 18 23  1  0  0  0  0
 21 22  1  0  0  0  0
 21 23  1  0  0  0  0
  1 24  1  0  0  0  0
  2 25  1  0  0  0  0
  6 26  1  0  0  0  0
 12 27  1  0  0  0  0
 13 28  1  0  0  0  0
 16 29  1  0  0  0  0
 16 30  1  0  0  0  0
 17 31  1  0  0  0  0
 21 32  1  0  0  0  0
 21 33  1  0  0  0  0
 22 34  1  0  0  0  0
 22 35  1  0  0  0  0
 22 36  1  0  0  0  0
 23 37  1  0  0  0  0
M  END
> <r_user_dG.exp>
-10.53

$$$$
ejm_54
  -OEChem-05192314073D
 Structure written by MMmdl.
 37 38  0     0  0  0  0  0  0999 V2000
   -1.9612   21.5502  -27.3300 C   0  0  0  0  0  0  0  0  0  0  0  0
   -1.2942   22.4120  -28.1957 C   0  0  0  0  0  0  0  0  0  0  0  0
   -1.9550   22.9520  -29.2938 C   0  0  0  0  0  0  0  0  0  0  0  0
   -3.2998   22.6223  -29.5426 C   0  0  0  0  0  0  0  0  0  0  0  0
   -3.9689   21.7588  -28.6534 C   0  0  0  0  0  0  0  0  0  0  0  0
   -3.2917   21.2292  -27.5624 C   0  0  0  0  0  0  0  0  0  0  0  0
   -5.6403   21.3533  -28.9190 Cl  0  0  0  0  0  0  0  0  0  0  0  0
   -4.0401   23.1522  -30.7110 C   0  0  0  0  0  0  0  0  0  0  0  0
   -4.2265   22.4198  -31.6685 O   0  0  0  0  0  0  0  0  0  0  0  0
   -4.5133   24.4119  -30.6476 N   0  0  0  0  0  0  0  0  0  0  0  0
   -5.2869   25.1112  -31.5800 C   0  0  0  0  0  0  0  0  0  0  0  0
   -5.9620   24.5479  -32.6807 C   0  0  0  0  0  0  0  0  0  0  0  0
   -6.7806   25.3609  -33.4589 C   0  0  0  0  0  0  0  0  0  0  0  0
   -6.9234   26.6542  -33.1828 N   0  0  0  0  0  0  0  0  0  0  0  0
   -6.2984   27.2317  -32.1577 C   0  0  0  0  0  0  0  0  0  0  0  0
   -5.5070   26.4571  -31.3066 C   0  0  0  0  0  0  0  0  0  0  0  0
   -6.5391   28.5828  -31.8838 N   0  0  0  0  0  0  0  0  0  0  0  0
   -5.7134   29.4445  -31.2331 C   0  0  0  0  0  0  0  0  0  0  0  0
   -4.6156   29.1218  -30.8098 O   0  0  0  0  0  0  0  0  0  0  0  0
   -1.1124   24.0506  -30.3318 Cl  0  0  0  0  0  0  0  0  0  0  0  0
   -5.1871   31.8542  -30.6778 C   0  0  0  0  0  0  0  0  0  0  0  0
   -3.9781   31.6716  -31.5468 C   0  0  0  0  0  0  0  0  0  0  0  0
   -6.1554   30.8245  -31.0242 N   0  0  0  0  0  0  0  0  0  0  0  0
   -1.4446   21.1319  -26.4788 H   0  0  0  0  0  0  0  0  0  0  0  0
   -0.2595   22.6624  -28.0140 H   0  0  0  0  0  0  0  0  0  0  0  0
   -3.8057   20.5606  -26.8877 H   0  0  0  0  0  0  0  0  0  0  0  0
   -5.8460   23.5005  -32.9171 H   0  0  0  0  0  0  0  0  0  0  0  0
   -7.3080   24.9353  -34.2998 H   0  0  0  0  0  0  0  0  0  0  0  0
   -7.5185   27.2105  -33.7628 H   0  0  0  0  0  0  0  0  0  0  0  0
   -5.9737   26.5047  -30.3117 H   0  0  0  0  0  0  0  0  0  0  0  0
   -4.5181   26.9376  -31.2711 H   0  0  0  0  0  0  0  0  0  0  0  0
   -4.9031   31.7575  -29.6195 H   0  0  0  0  0  0  0  0  0  0  0  0
   -5.6234   32.8490  -30.8509 H   0  0  0  0  0  0  0  0  0  0  0  0
   -3.2306   32.4407  -31.3023 H   0  0  0  0  0  0  0  0  0  0  0  0
   -3.5484   30.6742  -31.3721 H   0  0  0  0  0  0  0  0  0  0  0  0
   -4.2687   31.7657  -32.6035 H   0  0  0  0  0  0  0  0  0  0  0  0
   -7.1227   31.0595  -31.1195 H   0  0  0  0  0  0  0  0  0  0  0  0
  1  2  2  0  0  0  0
  1  6  1  0  0  0  0
  2  3  1  0  0  0  0
  3  4  2  0  0  0  0
  3 20  1  0  0  0  0
  4  5  1  0  0  0  0
  4  8  1  0  0  0  0
  5  6  2  0  0  0  0
  5  7  1  0  0  0  0
  8  9  2  0  0  0  0
  8 10  1  0  0  0  0
 10 11  2  0  0  0  0
 11 12  1  0  0  0  0
 11 16  1  0  0  0  0
 12 13  2  0  0  0  0
 13 14  1  0  0  0  0
 14 15  1  0  0  0  0
 15 16  1  0  0  0  0
 15 17  2  0  0  0  0
 17 18  1  0  0  0  0
 18 19  2  0  0  0  0
 18 23  1  0  0  0  0
 21 22  1  0  0  0  0
 21 23  1  0  0  0  0
  1 24  1  0  0  0  0
  2 25  1  0  0  0  0
  6 26  1  0  0  0  0
 12 27  1  0  0  0  0
 13 28  1  0  0  0  0
 14 29  1  0  0  0  0
 16 30  1  0  0  0  0
 16 31  1  0  0  0  0
 21 32  1  0  0  0  0
 21 33  1  0  0  0  0
 22 34  1  0  0  0  0
 22 35  1  0  0  0  0
 22 36  1  0  0  0  0
 23 37  1  0  0  0  0
M  END
> <r_user_dG.exp>
-10.53

$$$$
ejm_54
  -OEChem-05192314073D
 Structure written by MMmdl.
 37 38  0     0  0  0  0  0  0999 V2000
   -1.9612   21.5502  -27.3300 C   0  0  0  0  0  0  0  0  0  0  0  0
   -1.2942   22.4120  -28.1957 C   0  0  0  0  0  0  0  0  0  0  0  0
   -1.9550   22.9520  -29.2938 C   0  0  0  0  0  0  0  0  0  0  0  0
   -3.2998   22.6223  -29.5426 C   0  0  0  0  0  0  0  0  0  0  0  0
   -3.9689   21.7588  -28.6534 C   0  0  0  0  0  0  0  0  0  0  0  0
   -3.2917   21.2292  -27.5624 C   0  0  0  0  0  0  0  0  0  0  0  0
   -5.6403   21.3533  -28.9190 Cl  0  0  0  0  0  0  0  0  0  0  0  0
   -4.0401   23.1522  -30.7110 C   0  0  0  0  0  0  0  0  0  0  0  0
   -4.2265   22.4198  -31.6685 O   0  0  0  0  0  0  0  0  0  0  0  0
   -4.5133   24.4119  -30.6476 N   0  0  0  0  0  0  0  0  0  0  0  0
   -5.2869   25.1112  -31.5800 C   0  0  0  0  0  0  0  0  0  0  0  0
   -5.9620   24.5479  -32.6807 C   0  0  0  0  0  0  0  0  0  0  0  0
   -6.7806   25.3609  -33.4589 C   0  0  0  0  0  0  0  0  0  0  0  0
   -6.9234   26.6542  -33.1828 N   0  0  0  0  0  0  0  0  0  0  0  0
   -6.2984   27.2317  -32.1577 C   0  0  0  0  0  0  0  0  0  0  0  0
   -5.5070   26.4571  -31.3066 C   0  0  0  0  0  0  0  0  0  0  0  0
   -6.5391   28.5828  -31.8838 N   0  0  0  0  0  0  0  0  0  0  0  0
   -5.7134   29.4445  -31.2331 C   0  0  0  0  0  0  0  0  0  0  0  0
   -4.6156   29.1218  -30.8098 O   0  0  0  0  0  0  0  0  0  0  0  0
   -1.1124   24.0506  -30.3318 Cl  0  0  0  0  0  0  0  0  0  0  0  0
   -5.1871   31.8542  -30.6778 C   0  0  0  0  0  0  0  0  0  0  0  0
   -3.9781   31.6716  -31.5468 C   0  0  0  0  0  0  0  0  0  0  0  0
   -6.1554   30.8245  -31.0242 N   0  0  0  0  0  0  0  0  0  0  0  0
   -1.4446   21.1319  -26.4788 H   0  0  0  0  0  0  0  0  0  0  0  0
   -0.2595   22.6624  -28.0140 H   0  0  0  0  0  0  0  0  0  0  0  0
   -3.8057   20.5606  -26.8877 H   0  0  0  0  0  0  0  0  0  0  0  0
   -4.2787   24.9180  -29.8177 H   0  0  0  0  0  0  0  0  0  0  0  0
   -5.1953   24.1288  -33.3489 H   0  0  0  0  0  0  0  0  0  0  0  0
   -6.5923   23.7352  -32.2906 H   0  0  0  0  0  0  0  0  0  0  0  0
   -7.3080   24.9353  -34.2998 H   0  0  0  0  0  0  0  0  0  0  0  0
   -5.0630   26.9061  -30.4304 H   0  0  0  0  0  0  0  0  0  0  0  0
   -4.2052   29.8690  -30.3905 H   0  0  0  0  0  0  0  0  0  0  0  0
   -4.9031   31.7575  -29.6195 H   0  0  0  0  0  0  0  0  0  0  0  0
   -5.6234   32.8490  -30.8509 H   0  0  0  0  0  0  0  0  0  0  0  0
   -3.2306   32.4407  -31.3023 H   0  0  0  0  0  0  0  0  0  0  0  0
   -3.5484   30.6742  -31.3721 H   0  0  0  0  0  0  0  0  0  0  0  0
   -4.2687   31.7657  -32.6035 H   0  0  0  0  0  0  0  0  0  0  0  0
  1  2  2  0  0  0  0
  1  6  1  0  0  0  0
  2  3  1  0  0  0  0
  3  4  2  0  0  0  0
  3 20  1  0  0  0  0
  4  5  1  0  0  0  0
  4  8  1  0  0  0  0
  5  6  2  0  0  0  0
  5  7  1  0  0  0  0
  8  9  2  0  0  0  0
  8 10  1  0  0  0  0
 10 11  1  0  0  0  0
 11 12  1  0  0  0  0
 11 16  2  0  0  0  0
 12 13  1  0  0  0  0
 13 14  2  0  0  0  0
 14 15  1  0  0  0  0
 15 16  1  0  0  0  0
 15 17  2  0  0  0  0
 17 18  1  0  0  0  0
 18 19  1  0  0  0  0
 18 23  2  0  0  0  0
 21 22  1  0  0  0  0
 21 23  1  0  0  0  0
  1 24  1  0  0  0  0
  2 25  1  0  0  0  0
  6 26  1  0  0  0  0
 10 27  1  0  0  0  0
 12 28  1  0  0  0  0
 12 29  1  0  0  0  0
 13 30  1  0  0  0  0
 16 31  1  0  0  0  0
 19 32  1  0  0  0  0
 21 33  1  0  0  0  0
 21 34  1  0  0  0  0
 22 35  1  0  0  0  0
 22 36  1  0  0  0  0
 22 37  1  0  0  0  0
M  END
> <r_user_dG.exp>
-10.53

$$$$
ejm_54
  -OEChem-05192314073D
 Structure written by MMmdl.
 37 38  0     0  0  0  0  0  0999 V2000
   -1.9612   21.5502  -27.3300 C   0  0  0  0  0  0  0  0  0  0  0  0
   -1.2942   22.4120  -28.1957 C   0  0  0  0  0  0  0  0  0  0  0  0
   -1.9550   22.9520  -29.2938 C   0  0  0  0  0  0  0  0  0  0  0  0
   -3.2998   22.6223  -29.5426 C   0  0  0  0  0  0  0  0  0  0  0  0
   -3.9689   21.7588  -28.6534 C   0  0  0  0  0  0  0  0  0  0  0  0
   -3.2917   21.2292  -27.5624 C   0  0  0  0  0  0  0  0  0  0  0  0
   -5.6403   21.3533  -28.9190 Cl  0  0  0  0  0  0  0  0  0  0  0  0
   -4.0401   23.1522  -30.7110 C   0  0  0  0  0  0  0  0  0  0  0  0
   -4.2265   22.4198  -31.6685 O   0  0  0  0  0  0  0  0  0  0  0  0
   -4.5133   24.4119  -30.6476 N   0  0  0  0  0  0  0  0  0  0  0  0
   -5.2869   25.1112  -31.5800 C   0  0  0  0  0  0  0  0  0  0  0  0
   -5.9620   24.5479  -32.6807 C   0  0  0  0  0  0  0  0  0  0  0  0
   -6.7806   25.3609  -33.4589 C   0  0  0  0  0  0  0  0  0  0  0  0
   -6.9234   26.6542  -33.1828 N   0  0  0  0  0  0  0  0  0  0  0  0
   -6.2984   27.2317  -32.1577 C   0  0  0  0  0  0  0  0  0  0  0  0
   -5.5070   26.4571  -31.3066 C   0  0  0  0  0  0  0  0  0  0  0  0
   -6.5391   28.5828  -31.8838 N   0  0  0  0  0  0  0  0  0  0  0  0
   -5.7134   29.4445  -31.2331 C   0  0  0  0  0  0  0  0  0  0  0  0
   -4.6156   29.1218  -30.8098 O   0  0  0  0  0  0  0  0  0  0  0  0
   -1.1124   24.0506  -30.3318 Cl  0  0  0  0  0  0  0  0  0  0  0  0
   -5.1871   31.8542  -30.6778 C   0  0  0  0  0  0  0  0  0  0  0  0
   -3.9781   31.6716  -31.5468 C   0  0  0  0  0  0  0  0  0  0  0  0
   -6.1554   30.8245  -31.0242 N   0  0  0  0  0  0  0  0  0  0  0  0
   -1.4446   21.1319  -26.4788 H   0  0  0  0  0  0  0  0  0  0  0  0
   -0.2595   22.6624  -28.0140 H   0  0  0  0  0  0  0  0  0  0  0  0
   -3.8057   20.5606  -26.8877 H   0  0  0  0  0  0  0  0  0  0  0  0
   -4.2787   24.9180  -29.8177 H   0  0  0  0  0  0  0  0  0  0  0  0
   -5.8460   23.5005  -32.9171 H   0  0  0  0  0  0  0  0  0  0  0  0
   -7.3080   24.9353  -34.2998 H   0  0  0  0  0  0  0  0  0  0  0  0
   -5.9737   26.5047  -30.3117 H   0  0  0  0  0  0  0  0  0  0  0  0
   -4.5181   26.9376  -31.2711 H   0  0  0  0  0  0  0  0  0  0  0  0
   -4.2052   29.8690  -30.3905 H   0  0  0  0  0  0  0  0  0  0  0  0
   -4.9031   31.7575  -29.6195 H   0  0  0  0  0  0  0  0  0  0  0  0
   -5.6234   32.8490  -30.8509 H   0  0  0  0  0  0  0  0  0  0  0  0
   -3.2306   32.4407  -31.3023 H   0  0  0  0  0  0  0  0  0  0  0  0
   -3.5484   30.6742  -31.3721 H   0  0  0  0  0  0  0  0  0  0  0  0
   -4.2687   31.7657  -32.6035 H   0  0  0  0  0  0  0  0  0  0  0  0
  1  2  2  0  0  0  0
  1  6  1  0  0  0  0
  2  3  1  0  0  0  0
  3  4  2  0  0  0  0
  3 20  1  0  0  0  0
  4  5  1  0  0  0  0
  4  8  1  0  0  0  0
  5  6  2  0  0  0  0
  5  7  1  0  0  0  0
  8  9  2  0  0  0  0
  8 10  1  0  0  0  0
 10 11  1  0  0  0  0
 11 12  2  0  0  0  0
 11 16  1  0  0  0  0
 12 13  1  0  0  0  0
 13 14  2  0  0  0  0
 14 15  1  0  0  0  0
 15 16  1  0  0  0  0
 15 17  2  0  0  0  0
 17 18  1  0  0  0  0
 18 19  1  0  0  0  0
 18 23  2  0  0  0  0
 21 22  1  0  0  0  0
 21 23  1  0  0  0  0
  1 24  1  0  0  0  0
  2 25  1  0  0  0  0
  6 26  1  0  0  0  0
 10 27  1  0  0  0  0
 12 28  1  0  0  0  0
 13 29  1  0  0  0  0
 16 30  1  0  0  0  0
 16 31  1  0  0  0  0
 19 32  1  0  0  0  0
 21 33  1  0  0  0  0
 21 34  1  0  0  0  0
 22 35  1  0  0  0  0
 22 36  1  0  0  0  0
 22 37  1  0  0  0  0
M  END
> <r_user_dG.exp>
-10.53

$$$$
ejm_54
  -OEChem-05192314073D
 Structure written by MMmdl.
 37 38  0     0  0  0  0  0  0999 V2000
   -1.9612   21.5502  -27.3300 C   0  0  0  0  0  0  0  0  0  0  0  0
   -1.2942   22.4120  -28.1957 C   0  0  0  0  0  0  0  0  0  0  0  0
   -1.9550   22.9520  -29.2938 C   0  0  0  0  0  0  0  0  0  0  0  0
   -3.2998   22.6223  -29.5426 C   0  0  0  0  0  0  0  0  0  0  0  0
   -3.9689   21.7588  -28.6534 C   0  0  0  0  0  0  0  0  0  0  0  0
   -3.2917   21.2292  -27.5624 C   0  0  0  0  0  0  0  0  0  0  0  0
   -5.6403   21.3533  -28.9190 Cl  0  0  0  0  0  0  0  0  0  0  0  0
   -4.0401   23.1522  -30.7110 C   0  0  0  0  0  0  0  0  0  0  0  0
   -4.2265   22.4198  -31.6685 O   0  0  0  0  0  0  0  0  0  0  0  0
   -4.5133   24.4119  -30.6476 N   0  0  0  0  0  0  0  0  0  0  0  0
   -5.2869   25.1112  -31.5800 C   0  0  0  0  0  0  0  0  0  0  0  0
   -5.9620   24.5479  -32.6807 C   0  0  0  0  0  0  0  0  0  0  0  0
   -6.7806   25.3609  -33.4589 C   0  0  0  0  0  0  0  0  0  0  0  0
   -6.9234   26.6542  -33.1828 N   0  0  0  0  0  0  0  0  0  0  0  0
   -6.2984   27.2317  -32.1577 C   0  0  0  0  0  0  0  0  0  0  0  0
   -5.5070   26.4571  -31.3066 C   0  0  0  0  0  0  0  0  0  0  0  0
   -6.5391   28.5828  -31.8838 N   0  0  0  0  0  0  0  0  0  0  0  0
   -5.7134   29.4445  -31.2331 C   0  0  0  0  0  0  0  0  0  0  0  0
   -4.6156   29.1218  -30.8098 O   0  0  0  0  0  0  0  0  0  0  0  0
   -1.1124   24.0506  -30.3318 Cl  0  0  0  0  0  0  0  0  0  0  0  0
   -5.1871   31.8542  -30.6778 C   0  0  0  0  0  0  0  0  0  0  0  0
   -3.9781   31.6716  -31.5468 C   0  0  0  0  0  0  0  0  0  0  0  0
   -6.1554   30.8245  -31.0242 N   0  0  0  0  0  0  0  0  0  0  0  0
   -1.4446   21.1319  -26.4788 H   0  0  0  0  0  0  0  0  0  0  0  0
   -0.2595   22.6624  -28.0140 H   0  0  0  0  0  0  0  0  0  0  0  0
   -3.8057   20.5606  -26.8877 H   0  0  0  0  0  0  0  0  0  0  0  0
   -4.7104   22.8895  -32.3376 H   0  0  0  0  0  0  0  0  0  0  0  0
   -5.1953   24.1288  -33.3489 H   0  0  0  0  0  0  0  0  0  0  0  0
   -6.5923   23.7352  -32.2906 H   0  0  0  0  0  0  0  0  0  0  0  0
   -7.3080   24.9353  -34.2998 H   0  0  0  0  0  0  0  0  0  0  0  0
   -5.0630   26.9061  -30.4304 H   0  0  0  0  0  0  0  0  0  0  0  0
   -4.9031   31.7575  -29.6195 H   0  0  0  0  0  0  0  0  0  0  0  0
   -5.6234   32.8490  -30.8509 H   0  0  0  0  0  0  0  0  0  0  0  0
   -3.2306   32.4407  -31.3023 H   0  0  0  0  0  0  0  0  0  0  0  0
   -3.5484   30.6742  -31.3721 H   0  0  0  0  0  0  0  0  0  0  0  0
   -4.2687   31.7657  -32.6035 H   0  0  0  0  0  0  0  0  0  0  0  0
   -7.1227   31.0595  -31.1195 H   0  0  0  0  0  0  0  0  0  0  0  0
  1  2  2  0  0  0  0
  1  6  1  0  0  0  0
  2  3  1  0  0  0  0
  3  4  2  0  0  0  0
  3 20  1  0  0  0  0
  4  5  1  0  0  0  0
  4  8  1  0  0  0  0
  5  6  2  0  0  0  0
  5  7  1  0  0  0  0
  8  9  1  0  0  0  0
  8 10  2  0  0  0  0
 10 11  1  0  0  0  0
 11 12  1  0  0  0  0
 11 16  2  0  0  0  0
 12 13  1  0  0  0  0
 13 14  2  0  0  0  0
 14 15  1  0  0  0  0
 15 16  1  0  0  0  0
 15 17  2  0  0  0  0
 17 18  1  0  0  0  0
 18 19  2  0  0  0  0
 18 23  1  0  0  0  0
 21 22  1  0  0  0  0
 21 23  1  0  0  0  0
  1 24  1  0  0  0  0
  2 25  1  0  0  0  0
  6 26  1  0  0  0  0
  9 27  1  0  0  0  0
 12 28  1  0  0  0  0
 12 29  1  0  0  0  0
 13 30  1  0  0  0  0
 16 31  1  0  0  0  0
 21 32  1  0  0  0  0
 21 33  1  0  0  0  0
 22 34  1  0  0  0  0
 22 35  1  0  0  0  0
 22 36  1  0  0  0  0
 23 37  1  0  0  0  0
M  END
> <r_user_dG.exp>
-10.53

$$$$
ejm_54
  -OEChem-05192314073D
 Structure written by MMmdl.
 37 38  0     0  0  0  0  0  0999 V2000
   -1.9612   21.5502  -27.3300 C   0  0  0  0  0  0  0  0  0  0  0  0
   -1.2942   22.4120  -28.1957 C   0  0  0  0  0  0  0  0  0  0  0  0
   -1.9550   22.9520  -29.2938 C   0  0  0  0  0  0  0  0  0  0  0  0
   -3.2998   22.6223  -29.5426 C   0  0  0  0  0  0  0  0  0  0  0  0
   -3.9689   21.7588  -28.6534 C   0  0  0  0  0  0  0  0  0  0  0  0
   -3.2917   21.2292  -27.5624 C   0  0  0  0  0  0  0  0  0  0  0  0
   -5.6403   21.3533  -28.9190 Cl  0  0  0  0  0  0  0  0  0  0  0  0
   -4.0401   23.1522  -30.7110 C   0  0  0  0  0  0  0  0  0  0  0  0
   -4.2265   22.4198  -31.6685 O   0  0  0  0  0  0  0  0  0  0  0  0
   -4.5133   24.4119  -30.6476 N   0  0  0  0  0  0  0  0  0  0  0  0
   -5.2869   25.1112  -31.5800 C   0  0  0  0  0  0  0  0  0  0  0  0
   -5.9620   24.5479  -32.6807 C   0  0  0  0  0  0  0  0  0  0  0  0
   -6.7806   25.3609  -33.4589 C   0  0  0  0  0  0  0  0  0  0  0  0
   -6.9234   26.6542  -33.1828 N   0  0  0  0  0  0  0  0  0  0  0  0
   -6.2984   27.2317  -32.1577 C   0  0  0  0  0  0  0  0  0  0  0  0
   -5.5070   26.4571  -31.3066 C   0  0  0  0  0  0  0  0  0  0  0  0
   -6.5391   28.5828  -31.8838 N   0  0  0  0  0  0  0  0  0  0  0  0
   -5.7134   29.4445  -31.2331 C   0  0  0  0  0  0  0  0  0  0  0  0
   -4.6156   29.1218  -30.8098 O   0  0  0  0  0  0  0  0  0  0  0  0
   -1.1124   24.0506  -30.3318 Cl  0  0  0  0  0  0  0  0  0  0  0  0
   -5.1871   31.8542  -30.6778 C   0  0  0  0  0  0  0  0  0  0  0  0
   -3.9781   31.6716  -31.5468 C   0  0  0  0  0  0  0  0  0  0  0  0
   -6.1554   30.8245  -31.0242 N   0  0  0  0  0  0  0  0  0  0  0  0
   -1.4446   21.1319  -26.4788 H   0  0  0  0  0  0  0  0  0  0  0  0
   -0.2595   22.6624  -28.0140 H   0  0  0  0  0  0  0  0  0  0  0  0
   -3.8057   20.5606  -26.8877 H   0  0  0  0  0  0  0  0  0  0  0  0
   -5.1953   24.1288  -33.3489 H   0  0  0  0  0  0  0  0  0  0  0  0
   -6.5923   23.7352  -32.2906 H   0  0  0  0  0  0  0  0  0  0  0  0
   -7.3080   24.9353  -34.2998 H   0  0  0  0  0  0  0  0  0  0  0  0
   -5.0630   26.9061  -30.4304 H   0  0  0  0  0  0  0  0  0  0  0  0
   -7.4119   28.9540  -32.2007 H   0  0  0  0  0  0  0  0  0  0  0  0
   -4.2052   29.8690  -30.3905 H   0  0  0  0  0  0  0  0  0  0  0  0
   -4.9031   31.7575  -29.6195 H   0  0  0  0  0  0  0  0  0  0  0  0
   -5.6234   32.8490  -30.8509 H   0  0  0  0  0  0  0  0  0  0  0  0
   -3.2306   32.4407  -31.3023 H   0  0  0  0  0  0  0  0  0  0  0  0
   -3.5484   30.6742  -31.3721 H   0  0  0  0  0  0  0  0  0  0  0  0
   -4.2687   31.7657  -32.6035 H   0  0  0  0  0  0  0  0  0  0  0  0
  1  2  2  0  0  0  0
  1  6  1  0  0  0  0
  2  3  1  0  0  0  0
  3  4  2  0  0  0  0
  3 20  1  0  0  0  0
  4  5  1  0  0  0  0
  4  8  1  0  0  0  0
  5  6  2  0  0  0  0
  5  7  1  0  0  0  0
  8  9  2  0  0  0  0
  8 10  1  0  0  0  0
 10 11  2  0  0  0  0
 11 12  1  0  0  0  0
 11 16  1  0  0  0  0
 12 13  1  0  0  0  0
 13 14  2  0  0  0  0
 14 15  1  0  0  0  0
 15 16  2  0  0  0  0
 15 17  1  0  0  0  0
 17 18  1  0  0  0  0
 18 19  1  0  0  0  0
 18 23  2  0  0  0  0
 21 22  1  0  0  0  0
 21 23  1  0  0  0  0
  1 24  1  0  0  0  0
  2 25  1  0  0  0  0
  6 26  1  0  0  0  0
 12 27  1  0  0  0  0
 12 28  1  0  0  0  0
 13 29  1  0  0  0  0
 16 30  1  0  0  0  0
 17 31  1  0  0  0  0
 19 32  1  0  0  0  0
 21 33  1  0  0  0  0
 21 34  1  0  0  0  0
 22 35  1  0  0  0  0
 22 36  1  0  0  0  0
 22 37  1  0  0  0  0
M  END
> <r_user_dG.exp>
-10.53

$$$$
ejm_54
  -OEChem-05192314073D
 Structure written by MMmdl.
 37 38  0     0  0  0  0  0  0999 V2000
   -1.9612   21.5502  -27.3300 C   0  0  0  0  0  0  0  0  0  0  0  0
   -1.2942   22.4120  -28.1957 C   0  0  0  0  0  0  0  0  0  0  0  0
   -1.9550   22.9520  -29.2938 C   0  0  0  0  0  0  0  0  0  0  0  0
   -3.2998   22.6223  -29.5426 C   0  0  0  0  0  0  0  0  0  0  0  0
   -3.9689   21.7588  -28.6534 C   0  0  0  0  0  0  0  0  0  0  0  0
   -3.2917   21.2292  -27.5624 C   0  0  0  0  0  0  0  0  0  0  0  0
   -5.6403   21.3533  -28.9190 Cl  0  0  0  0  0  0  0  0  0  0  0  0
   -4.0401   23.1522  -30.7110 C   0  0  0  0  0  0  0  0  0  0  0  0
   -4.2265   22.4198  -31.6685 O   0  0  0  0  0  0  0  0  0  0  0  0
   -4.5133   24.4119  -30.6476 N   0  0  0  0  0  0  0  0  0  0  0  0
   -5.2869   25.1112  -31.5800 C   0  0  0  0  0  0  0  0  0  0  0  0
   -5.9620   24.5479  -32.6807 C   0  0  0  0  0  0  0  0  0  0  0  0
   -6.7806   25.3609  -33.4589 C   0  0  0  0  0  0  0  0  0  0  0  0
   -6.9234   26.6542  -33.1828 N   0  0  0  0  0  0  0  0  0  0  0  0
   -6.2984   27.2317  -32.1577 C   0  0  0  0  0  0  0  0  0  0  0  0
   -5.5070   26.4571  -31.3066 C   0  0  0  0  0  0  0  0  0  0  0  0
   -6.5391   28.5828  -31.8838 N   0  0  0  0  0  0  0  0  0  0  0  0
   -5.7134   29.4445  -31.2331 C   0  0  0  0  0  0  0  0  0  0  0  0
   -4.6156   29.1218  -30.8098 O   0  0  0  0  0  0  0  0  0  0  0  0
   -1.1124   24.0506  -30.3318 Cl  0  0  0  0  0  0  0  0  0  0  0  0
   -5.1871   31.8542  -30.6778 C   0  0  0  0  0  0  0  0  0  0  0  0
   -3.9781   31.6716  -31.5468 C   0  0  0  0  0  0  0  0  0  0  0  0
   -6.1554   30.8245  -31.0242 N   0  0  0  0  0  0  0  0  0  0  0  0
   -1.4446   21.1319  -26.4788 H   0  0  0  0  0  0  0  0  0  0  0  0
   -0.2595   22.6624  -28.0140 H   0  0  0  0  0  0  0  0  0  0  0  0
   -3.8057   20.5606  -26.8877 H   0  0  0  0  0  0  0  0  0  0  0  0
   -5.1953   24.1288  -33.3489 H   0  0  0  0  0  0  0  0  0  0  0  0
   -6.5923   23.7352  -32.2906 H   0  0  0  0  0  0  0  0  0  0  0  0
   -7.3080   24.9353  -34.2998 H   0  0  0  0  0  0  0  0  0  0  0  0
   -5.0630   26.9061  -30.4304 H   0  0  0  0  0  0  0  0  0  0  0  0
   -4.2052   29.8690  -30.3905 H   0  0  0  0  0  0  0  0  0  0  0  0
   -4.9031   31.7575  -29.6195 H   0  0  0  0  0  0  0  0  0  0  0  0
   -5.6234   32.8490  -30.8509 H   0  0  0  0  0  0  0  0  0  0  0  0
   -3.2306   32.4407  -31.3023 H   0  0  0  0  0  0  0  0  0  0  0  0
   -3.5484   30.6742  -31.3721 H   0  0  0  0  0  0  0  0  0  0  0  0
   -4.2687   31.7657  -32.6035 H   0  0  0  0  0  0  0  0  0  0  0  0
   -7.1227   31.0595  -31.1195 H   0  0  0  0  0  0  0  0  0  0  0  0
  1  2  2  0  0  0  0
  1  6  1  0  0  0  0
  2  3  1  0  0  0  0
  3  4  2  0  0  0  0
  3 20  1  0  0  0  0
  4  5  1  0  0  0  0
  4  8  1  0  0  0  0
  5  6  2  0  0  0  0
  5  7  1  0  0  0  0
  8  9  2  0  0  0  0
  8 10  1  0  0  0  0
 10 11  2  0  0  0  0
 11 12  1  0  0  0  0
 11 16  1  0  0  0  0
 12 13  1  0  0  0  0
 13 14  2  0  0  0  0
 14 15  1  0  0  0  0
 15 16  2  0  0  0  0
 15 17  1  0  0  0  0
 17 18  2  0  0  0  0
 18 19  1  0  0  0  0
 18 23  1  0  0  0  0
 21 22  1  0  0  0  0
 21 23  1  0  0  0  0
  1 24  1  0  0  0  0
  2 25  1  0  0  0  0
  6 26  1  0  0  0  0
 12 27  1  0  0  0  0
 12 28  1  0  0  0  0
 13 29  1  0  0  0  0
 16 30  1  0  0  0  0
 19 31  1  0  0  0  0
 21 32  1  0  0  0  0
 21 33  1  0  0  0  0
 22 34  1  0  0  0  0
 22 35  1  0  0  0  0
 22 36  1  0  0  0  0
 23 37  1  0  0  0  0
M  END
> <r_user_dG.exp>
-10.53

$$$$
ejm_54
  -OEChem-05192314073D
 Structure written by MMmdl.
 37 38  0     0  0  0  0  0  0999 V2000
   -1.9612   21.5502  -27.3300 C   0  0  0  0  0  0  0  0  0  0  0  0
   -1.2942   22.4120  -28.1957 C   0  0  0  0  0  0  0  0  0  0  0  0
   -1.9550   22.9520  -29.2938 C   0  0  0  0  0  0  0  0  0  0  0  0
   -3.2998   22.6223  -29.5426 C   0  0  0  0  0  0  0  0  0  0  0  0
   -3.9689   21.7588  -28.6534 C   0  0  0  0  0  0  0  0  0  0  0  0
   -3.2917   21.2292  -27.5624 C   0  0  0  0  0  0  0  0  0  0  0  0
   -5.6403   21.3533  -28.9190 Cl  0  0  0  0  0  0  0  0  0  0  0  0
   -4.0401   23.1522  -30.7110 C   0  0  0  0  0  0  0  0  0  0  0  0
   -4.2265   22.4198  -31.6685 O   0  0  0  0  0  0  0  0  0  0  0  0
   -4.5133   24.4119  -30.6476 N   0  0  0  0  0  0  0  0  0  0  0  0
   -5.2869   25.1112  -31.5800 C   0  0  0  0  0  0  0  0  0  0  0  0
   -5.9620   24.5479  -32.6807 C   0  0  0  0  0  0  0  0  0  0  0  0
   -6.7806   25.3609  -33.4589 C   0  0  0  0  0  0  0  0  0  0  0  0
   -6.9234   26.6542  -33.1828 N   0  0  0  0  0  0  0  0  0  0  0  0
   -6.2984   27.2317  -32.1577 C   0  0  0  0  0  0  0  0  0  0  0  0
   -5.5070   26.4571  -31.3066 C   0  0  0  0  0  0  0  0  0  0  0  0
   -6.5391   28.5828  -31.8838 N   0  0  0  0  0  0  0  0  0  0  0  0
   -5.7134   29.4445  -31.2331 C   0  0  0  0  0  0  0  0  0  0  0  0
   -4.6156   29.1218  -30.8098 O   0  0  0  0  0  0  0  0  0  0  0  0
   -1.1124   24.0506  -30.3318 Cl  0  0  0  0  0  0  0  0  0  0  0  0
   -5.1871   31.8542  -30.6778 C   0  0  0  0  0  0  0  0  0  0  0  0
   -3.9781   31.6716  -31.5468 C   0  0  0  0  0  0  0  0  0  0  0  0
   -6.1554   30.8245  -31.0242 N   0  0  0  0  0  0  0  0  0  0  0  0
   -1.4446   21.1319  -26.4788 H   0  0  0  0  0  0  0  0  0  0  0  0
   -0.2595   22.6624  -28.0140 H   0  0  0  0  0  0  0  0  0  0  0  0
   -3.8057   20.5606  -26.8877 H   0  0  0  0  0  0  0  0  0  0  0  0
   -4.7104   22.8895  -32.3376 H   0  0  0  0  0  0  0  0  0  0  0  0
   -5.8460   23.5005  -32.9171 H   0  0  0  0  0  0  0  0  0  0  0  0
   -7.3080   24.9353  -34.2998 H   0  0  0  0  0  0  0  0  0  0  0  0
   -5.9737   26.5047  -30.3117 H   0  0  0  0  0  0  0  0  0  0  0  0
   -4.5181   26.9376  -31.2711 H   0  0  0  0  0  0  0  0  0  0  0  0
   -4.9031   31.7575  -29.6195 H   0  0  0  0  0  0  0  0  0  0  0  0
   -5.6234   32.8490  -30.8509 H   0  0  0  0  0  0  0  0  0  0  0  0
   -3.2306   32.4407  -31.3023 H   0  0  0  0  0  0  0  0  0  0  0  0
   -3.5484   30.6742  -31.3721 H   0  0  0  0  0  0  0  0  0  0  0  0
   -4.2687   31.7657  -32.6035 H   0  0  0  0  0  0  0  0  0  0  0  0
   -7.1227   31.0595  -31.1195 H   0  0  0  0  0  0  0  0  0  0  0  0
  1  2  2  0  0  0  0
  1  6  1  0  0  0  0
  2  3  1  0  0  0  0
  3  4  2  0  0  0  0
  3 20  1  0  0  0  0
  4  5  1  0  0  0  0
  4  8  1  0  0  0  0
  5  6  2  0  0  0  0
  5  7  1  0  0  0  0
  8  9  1  0  0  0  0
  8 10  2  0  0  0  0
 10 11  1  0  0  0  0
 11 12  2  0  0  0  0
 11 16  1  0  0  0  0
 12 13  1  0  0  0  0
 13 14  2  0  0  0  0
 14 15  1  0  0  0  0
 15 16  1  0  0  0  0
 15 17  2  0  0  0  0
 17 18  1  0  0  0  0
 18 19  2  0  0  0  0
 18 23  1  0  0  0  0
 21 22  1  0  0  0  0
 21 23  1  0  0  0  0
  1 24  1  0  0  0  0
  2 25  1  0  0  0  0
  6 26  1  0  0  0  0
  9 27  1  0  0  0  0
 12 28  1  0  0  0  0
 13 29  1  0  0  0  0
 16 30  1  0  0  0  0
 16 31  1  0  0  0  0
 21 32  1  0  0  0  0
 21 33  1  0  0  0  0
 22 34  1  0  0  0  0
 22 35  1  0  0  0  0
 22 36  1  0  0  0  0
 23 37  1  0  0  0  0
M  END
> <r_user_dG.exp>
-10.53

$$$$
ejm_54
  -OEChem-05192314073D
 Structure written by MMmdl.
 37 38  0     0  0  0  0  0  0999 V2000
   -1.9612   21.5502  -27.3300 C   0  0  0  0  0  0  0  0  0  0  0  0
   -1.2942   22.4120  -28.1957 C   0  0  0  0  0  0  0  0  0  0  0  0
   -1.9550   22.9520  -29.2938 C   0  0  0  0  0  0  0  0  0  0  0  0
   -3.2998   22.6223  -29.5426 C   0  0  0  0  0  0  0  0  0  0  0  0
   -3.9689   21.7588  -28.6534 C   0  0  0  0  0  0  0  0  0  0  0  0
   -3.2917   21.2292  -27.5624 C   0  0  0  0  0  0  0  0  0  0  0  0
   -5.6403   21.3533  -28.9190 Cl  0  0  0  0  0  0  0  0  0  0  0  0
   -4.0401   23.1522  -30.7110 C   0  0  0  0  0  0  0  0  0  0  0  0
   -4.2265   22.4198  -31.6685 O   0  0  0  0  0  0  0  0  0  0  0  0
   -4.5133   24.4119  -30.6476 N   0  0  0  0  0  0  0  0  0  0  0  0
   -5.2869   25.1112  -31.5800 C   0  0  0  0  0  0  0  0  0  0  0  0
   -5.9620   24.5479  -32.6807 C   0  0  0  0  0  0  0  0  0  0  0  0
   -6.7806   25.3609  -33.4589 C   0  0  0  0  0  0  0  0  0  0  0  0
   -6.9234   26.6542  -33.1828 N   0  0  0  0  0  0  0  0  0  0  0  0
   -6.2984   27.2317  -32.1577 C   0  0  0  0  0  0  0  0  0  0  0  0
   -5.5070   26.4571  -31.3066 C   0  0  0  0  0  0  0  0  0  0  0  0
   -6.5391   28.5828  -31.8838 N   0  0  0  0  0  0  0  0  0  0  0  0
   -5.7134   29.4445  -31.2331 C   0  0  0  0  0  0  0  0  0  0  0  0
   -4.6156   29.1218  -30.8098 O   0  0  0  0  0  0  0  0  0  0  0  0
   -1.1124   24.0506  -30.3318 Cl  0  0  0  0  0  0  0  0  0  0  0  0
   -5.1871   31.8542  -30.6778 C   0  0  0  0  0  0  0  0  0  0  0  0
   -3.9781   31.6716  -31.5468 C   0  0  0  0  0  0  0  0  0  0  0  0
   -6.1554   30.8245  -31.0242 N   0  0  0  0  0  0  0  0  0  0  0  0
   -1.4446   21.1319  -26.4788 H   0  0  0  0  0  0  0  0  0  0  0  0
   -0.2595   22.6624  -28.0140 H   0  0  0  0  0  0  0  0  0  0  0  0
   -3.8057   20.5606  -26.8877 H   0  0  0  0  0  0  0  0  0  0  0  0
   -5.8460   23.5005  -32.9171 H   0  0  0  0  0  0  0  0  0  0  0  0
   -7.3080   24.9353  -34.2998 H   0  0  0  0  0  0  0  0  0  0  0  0
   -5.9737   26.5047  -30.3117 H   0  0  0  0  0  0  0  0  0  0  0  0
   -4.5181   26.9376  -31.2711 H   0  0  0  0  0  0  0  0  0  0  0  0
   -7.4119   28.9540  -32.2007 H   0  0  0  0  0  0  0  0  0  0  0  0
   -4.2052   29.8690  -30.3905 H   0  0  0  0  0  0  0  0  0  0  0  0
   -4.9031   31.7575  -29.6195 H   0  0  0  0  0  0  0  0  0  0  0  0
   -5.6234   32.8490  -30.8509 H   0  0  0  0  0  0  0  0  0  0  0  0
   -3.2306   32.4407  -31.3023 H   0  0  0  0  0  0  0  0  0  0  0  0
   -3.5484   30.6742  -31.3721 H   0  0  0  0  0  0  0  0  0  0  0  0
   -4.2687   31.7657  -32.6035 H   0  0  0  0  0  0  0  0  0  0  0  0
  1  2  2  0  0  0  0
  1  6  1  0  0  0  0
  2  3  1  0  0  0  0
  3  4  2  0  0  0  0
  3 20  1  0  0  0  0
  4  5  1  0  0  0  0
  4  8  1  0  0  0  0
  5  6  2  0  0  0  0
  5  7  1  0  0  0  0
  8  9  2  0  0  0  0
  8 10  1  0  0  0  0
 10 11  2  0  0  0  0
 11 12  1  0  0  0  0
 11 16  1  0  0  0  0
 12 13  2  0  0  0  0
 13 14  1  0  0  0  0
 14 15  2  0  0  0  0
 15 16  1  0  0  0  0
 15 17  1  0  0  0  0
 17 18  1  0  0  0  0
 18 19  1  0  0  0  0
 18 23  2  0  0  0  0
 21 22  1  0  0  0  0
 21 23  1  0  0  0  0
  1 24  1  0  0  0  0
  2 25  1  0  0  0  0
  6 26  1  0  0  0  0
 12 27  1  0  0  0  0
 13 28  1  0  0  0  0
 16 29  1  0  0  0  0
 16 30  1  0  0  0  0
 17 31  1  0  0  0  0
 19 32  1  0  0  0  0
 21 33  1  0  0  0  0
 21 34  1  0  0  0  0
 22 35  1  0  0  0  0
 22 36  1  0  0  0  0
 22 37  1  0  0  0  0
M  END
> <r_user_dG.exp>
-10.53

$$$$
ejm_54
  -OEChem-05192314073D
 Structure written by MMmdl.
 37 38  0     0  0  0  0  0  0999 V2000
   -1.9612   21.5502  -27.3300 C   0  0  0  0  0  0  0  0  0  0  0  0
   -1.2942   22.4120  -28.1957 C   0  0  0  0  0  0  0  0  0  0  0  0
   -1.9550   22.9520  -29.2938 C   0  0  0  0  0  0  0  0  0  0  0  0
   -3.2998   22.6223  -29.5426 C   0  0  0  0  0  0  0  0  0  0  0  0
   -3.9689   21.7588  -28.6534 C   0  0  0  0  0  0  0  0  0  0  0  0
   -3.2917   21.2292  -27.5624 C   0  0  0  0  0  0  0  0  0  0  0  0
   -5.6403   21.3533  -28.9190 Cl  0  0  0  0  0  0  0  0  0  0  0  0
   -4.0401   23.1522  -30.7110 C   0  0  0  0  0  0  0  0  0  0  0  0
   -4.2265   22.4198  -31.6685 O   0  0  0  0  0  0  0  0  0  0  0  0
   -4.5133   24.4119  -30.6476 N   0  0  0  0  0  0  0  0  0  0  0  0
   -5.2869   25.1112  -31.5800 C   0  0  0  0  0  0  0  0  0  0  0  0
   -5.9620   24.5479  -32.6807 C   0  0  0  0  0  0  0  0  0  0  0  0
   -6.7806   25.3609  -33.4589 C   0  0  0  0  0  0  0  0  0  0  0  0
   -6.9234   26.6542  -33.1828 N   0  0  0  0  0  0  0  0  0  0  0  0
   -6.2984   27.2317  -32.1577 C   0  0  0  0  0  0  0  0  0  0  0  0
   -5.5070   26.4571  -31.3066 C   0  0  0  0  0  0  0  0  0  0  0  0
   -6.5391   28.5828  -31.8838 N   0  0  0  0  0  0  0  0  0  0  0  0
   -5.7134   29.4445  -31.2331 C   0  0  0  0  0  0  0  0  0  0  0  0
   -4.6156   29.1218  -30.8098 O   0  0  0  0  0  0  0  0  0  0  0  0
   -1.1124   24.0506  -30.3318 Cl  0  0  0  0  0  0  0  0  0  0  0  0
   -5.1871   31.8542  -30.6778 C   0  0  0  0  0  0  0  0  0  0  0  0
   -3.9781   31.6716  -31.5468 C   0  0  0  0  0  0  0  0  0  0  0  0
   -6.1554   30.8245  -31.0242 N   0  0  0  0  0  0  0  0  0  0  0  0
   -1.4446   21.1319  -26.4788 H   0  0  0  0  0  0  0  0  0  0  0  0
   -0.2595   22.6624  -28.0140 H   0  0  0  0  0  0  0  0  0  0  0  0
   -3.8057   20.5606  -26.8877 H   0  0  0  0  0  0  0  0  0  0  0  0
   -5.8460   23.5005  -32.9171 H   0  0  0  0  0  0  0  0  0  0  0  0
   -7.3080   24.9353  -34.2998 H   0  0  0  0  0  0  0  0  0  0  0  0
   -7.5185   27.2105  -33.7628 H   0  0  0  0  0  0  0  0  0  0  0  0
   -5.9737   26.5047  -30.3117 H   0  0  0  0  0  0  0  0  0  0  0  0
   -4.5181   26.9376  -31.2711 H   0  0  0  0  0  0  0  0  0  0  0  0
   -4.2052   29.8690  -30.3905 H   0  0  0  0  0  0  0  0  0  0  0  0
   -4.9031   31.7575  -29.6195 H   0  0  0  0  0  0  0  0  0  0  0  0
   -5.6234   32.8490  -30.8509 H   0  0  0  0  0  0  0  0  0  0  0  0
   -3.2306   32.4407  -31.3023 H   0  0  0  0  0  0  0  0  0  0  0  0
   -3.5484   30.6742  -31.3721 H   0  0  0  0  0  0  0  0  0  0  0  0
   -4.2687   31.7657  -32.6035 H   0  0  0  0  0  0  0  0  0  0  0  0
  1  2  2  0  0  0  0
  1  6  1  0  0  0  0
  2  3  1  0  0  0  0
  3  4  2  0  0  0  0
  3 20  1  0  0  0  0
  4  5  1  0  0  0  0
  4  8  1  0  0  0  0
  5  6  2  0  0  0  0
  5  7  1  0  0  0  0
  8  9  2  0  0  0  0
  8 10  1  0  0  0  0
 10 11  2  0  0  0  0
 11 12  1  0  0  0  0
 11 16  1  0  0  0  0
 12 13  2  0  0  0  0
 13 14  1  0  0  0  0
 14 15  1  0  0  0  0
 15 16  1  0  0  0  0
 15 17  2  0  0  0  0
 17 18  1  0  0  0  0
 18 19  1  0  0  0  0
 18 23  2  0  0  0  0
 21 22  1  0  0  0  0
 21 23  1  0  0  0  0
  1 24  1  0  0  0  0
  2 25  1  0  0  0  0
  6 26  1  0  0  0  0
 12 27  1  0  0  0  0
 13 28  1  0  0  0  0
 14 29  1  0  0  0  0
 16 30  1  0  0  0  0
 16 31  1  0  0  0  0
 19 32  1  0  0  0  0
 21 33  1  0  0  0  0
 21 34  1  0  0  0  0
 22 35  1  0  0  0  0
 22 36  1  0  0  0  0
 22 37  1  0  0  0  0
M  END
> <r_user_dG.exp>
-10.53

$$$$
ejm_54
  -OEChem-05192314073D
 Structure written by MMmdl.
 37 38  0     0  0  0  0  0  0999 V2000
   -1.9612   21.5502  -27.3300 C   0  0  0  0  0  0  0  0  0  0  0  0
   -1.2942   22.4120  -28.1957 C   0  0  0  0  0  0  0  0  0  0  0  0
   -1.9550   22.9520  -29.2938 C   0  0  0  0  0  0  0  0  0  0  0  0
   -3.2998   22.6223  -29.5426 C   0  0  0  0  0  0  0  0  0  0  0  0
   -3.9689   21.7588  -28.6534 C   0  0  0  0  0  0  0  0  0  0  0  0
   -3.2917   21.2292  -27.5624 C   0  0  0  0  0  0  0  0  0  0  0  0
   -5.6403   21.3533  -28.9190 Cl  0  0  0  0  0  0  0  0  0  0  0  0
   -4.0401   23.1522  -30.7110 C   0  0  0  0  0  0  0  0  0  0  0  0
   -4.2265   22.4198  -31.6685 O   0  0  0  0  0  0  0  0  0  0  0  0
   -4.5133   24.4119  -30.6476 N   0  0  0  0  0  0  0  0  0  0  0  0
   -5.2869   25.1112  -31.5800 C   0  0  0  0  0  0  0  0  0  0  0  0
   -5.9620   24.5479  -32.6807 C   0  0  0  0  0  0  0  0  0  0  0  0
   -6.7806   25.3609  -33.4589 C   0  0  0  0  0  0  0  0  0  0  0  0
   -6.9234   26.6542  -33.1828 N   0  0  0  0  0  0  0  0  0  0  0  0
   -6.2984   27.2317  -32.1577 C   0  0  0  0  0  0  0  0  0  0  0  0
   -5.5070   26.4571  -31.3066 C   0  0  0  0  0  0  0  0  0  0  0  0
   -6.5391   28.5828  -31.8838 N   0  0  0  0  0  0  0  0  0  0  0  0
   -5.7134   29.4445  -31.2331 C   0  0  0  0  0  0  0  0  0  0  0  0
   -4.6156   29.1218  -30.8098 O   0  0  0  0  0  0  0  0  0  0  0  0
   -1.1124   24.0506  -30.3318 Cl  0  0  0  0  0  0  0  0  0  0  0  0
   -5.1871   31.8542  -30.6778 C   0  0  0  0  0  0  0  0  0  0  0  0
   -3.9781   31.6716  -31.5468 C   0  0  0  0  0  0  0  0  0  0  0  0
   -6.1554   30.8245  -31.0242 N   0  0  0  0  0  0  0  0  0  0  0  0
   -1.4446   21.1319  -26.4788 H   0  0  0  0  0  0  0  0  0  0  0  0
   -0.2595   22.6624  -28.0140 H   0  0  0  0  0  0  0  0  0  0  0  0
   -3.8057   20.5606  -26.8877 H   0  0  0  0  0  0  0  0  0  0  0  0
   -5.8460   23.5005  -32.9171 H   0  0  0  0  0  0  0  0  0  0  0  0
   -7.3080   24.9353  -34.2998 H   0  0  0  0  0  0  0  0  0  0  0  0
   -5.9737   26.5047  -30.3117 H   0  0  0  0  0  0  0  0  0  0  0  0
   -4.5181   26.9376  -31.2711 H   0  0  0  0  0  0  0  0  0  0  0  0
   -4.2052   29.8690  -30.3905 H   0  0  0  0  0  0  0  0  0  0  0  0
   -4.9031   31.7575  -29.6195 H   0  0  0  0  0  0  0  0  0  0  0  0
   -5.6234   32.8490  -30.8509 H   0  0  0  0  0  0  0  0  0  0  0  0
   -3.2306   32.4407  -31.3023 H   0  0  0  0  0  0  0  0  0  0  0  0
   -3.5484   30.6742  -31.3721 H   0  0  0  0  0  0  0  0  0  0  0  0
   -4.2687   31.7657  -32.6035 H   0  0  0  0  0  0  0  0  0  0  0  0
   -7.1227   31.0595  -31.1195 H   0  0  0  0  0  0  0  0  0  0  0  0
  1  2  2  0  0  0  0
  1  6  1  0  0  0  0
  2  3  1  0  0  0  0
  3  4  2  0  0  0  0
  3 20  1  0  0  0  0
  4  5  1  0  0  0  0
  4  8  1  0  0  0  0
  5  6  2  0  0  0  0
  5  7  1  0  0  0  0
  8  9  2  0  0  0  0
  8 10  1  0  0  0  0
 10 11  2  0  0  0  0
 11 12  1  0  0  0  0
 11 16  1  0  0  0  0
 12 13  2  0  0  0  0
 13 14  1  0  0  0  0
 14 15  2  0  0  0  0
 15 16  1  0  0  0  0
 15 17  1  0  0  0  0
 17 18  2  0  0  0  0
 18 19  1  0  0  0  0
 18 23  1  0  0  0  0
 21 22  1  0  0  0  0
 21 23  1  0  0  0  0
  1 24  1  0  0  0  0
  2 25  1  0  0  0  0
  6 26  1  0  0  0  0
 12 27  1  0  0  0  0
 13 28  1  0  0  0  0
 16 29  1  0  0  0  0
 16 30  1  0  0  0  0
 19 31  1  0  0  0  0
 21 32  1  0  0  0  0
 21 33  1  0  0  0  0
 22 34  1  0  0  0  0
 22 35  1  0  0  0  0
 22 36  1  0  0  0  0
 23 37  1  0  0  0  0
M  END
> <r_user_dG.exp>
-10.53

$$$$
ejm_54
  -OEChem-05192314073D
 Structure written by MMmdl.
 37 38  0     0  0  0  0  0  0999 V2000
   -1.9612   21.5502  -27.3300 C   0  0  0  0  0  0  0  0  0  0  0  0
   -1.2942   22.4120  -28.1957 C   0  0  0  0  0  0  0  0  0  0  0  0
   -1.9550   22.9520  -29.2938 C   0  0  0  0  0  0  0  0  0  0  0  0
   -3.2998   22.6223  -29.5426 C   0  0  0  0  0  0  0  0  0  0  0  0
   -3.9689   21.7588  -28.6534 C   0  0  0  0  0  0  0  0  0  0  0  0
   -3.2917   21.2292  -27.5624 C   0  0  0  0  0  0  0  0  0  0  0  0
   -5.6403   21.3533  -28.9190 Cl  0  0  0  0  0  0  0  0  0  0  0  0
   -4.0401   23.1522  -30.7110 C   0  0  0  0  0  0  0  0  0  0  0  0
   -4.2265   22.4198  -31.6685 O   0  0  0  0  0  0  0  0  0  0  0  0
   -4.5133   24.4119  -30.6476 N   0  0  0  0  0  0  0  0  0  0  0  0
   -5.2869   25.1112  -31.5800 C   0  0  0  0  0  0  0  0  0  0  0  0
   -5.9620   24.5479  -32.6807 C   0  0  0  0  0  0  0  0  0  0  0  0
   -6.7806   25.3609  -33.4589 C   0  0  0  0  0  0  0  0  0  0  0  0
   -6.9234   26.6542  -33.1828 N   0  0  0  0  0  0  0  0  0  0  0  0
   -6.2984   27.2317  -32.1577 C   0  0  0  0  0  0  0  0  0  0  0  0
   -5.5070   26.4571  -31.3066 C   0  0  0  0  0  0  0  0  0  0  0  0
   -6.5391   28.5828  -31.8838 N   0  0  0  0  0  0  0  0  0  0  0  0
   -5.7134   29.4445  -31.2331 C   0  0  0  0  0  0  0  0  0  0  0  0
   -4.6156   29.1218  -30.8098 O   0  0  0  0  0  0  0  0  0  0  0  0
   -1.1124   24.0506  -30.3318 Cl  0  0  0  0  0  0  0  0  0  0  0  0
   -5.1871   31.8542  -30.6778 C   0  0  0  0  0  0  0  0  0  0  0  0
   -3.9781   31.6716  -31.5468 C   0  0  0  0  0  0  0  0  0  0  0  0
   -6.1554   30.8245  -31.0242 N   0  0  0  0  0  0  0  0  0  0  0  0
   -1.4446   21.1319  -26.4788 H   0  0  0  0  0  0  0  0  0  0  0  0
   -0.2595   22.6624  -28.0140 H   0  0  0  0  0  0  0  0  0  0  0  0
   -3.8057   20.5606  -26.8877 H   0  0  0  0  0  0  0  0  0  0  0  0
   -4.7104   22.8895  -32.3376 H   0  0  0  0  0  0  0  0  0  0  0  0
   -5.1953   24.1288  -33.3489 H   0  0  0  0  0  0  0  0  0  0  0  0
   -6.5923   23.7352  -32.2906 H   0  0  0  0  0  0  0  0  0  0  0  0
   -7.3080   24.9353  -34.2998 H   0  0  0  0  0  0  0  0  0  0  0  0
   -5.0630   26.9061  -30.4304 H   0  0  0  0  0  0  0  0  0  0  0  0
   -4.2052   29.8690  -30.3905 H   0  0  0  0  0  0  0  0  0  0  0  0
   -4.9031   31.7575  -29.6195 H   0  0  0  0  0  0  0  0  0  0  0  0
   -5.6234   32.8490  -30.8509 H   0  0  0  0  0  0  0  0  0  0  0  0
   -3.2306   32.4407  -31.3023 H   0  0  0  0  0  0  0  0  0  0  0  0
   -3.5484   30.6742  -31.3721 H   0  0  0  0  0  0  0  0  0  0  0  0
   -4.2687   31.7657  -32.6035 H   0  0  0  0  0  0  0  0  0  0  0  0
  1  2  2  0  0  0  0
  1  6  1  0  0  0  0
  2  3  1  0  0  0  0
  3  4  2  0  0  0  0
  3 20  1  0  0  0  0
  4  5  1  0  0  0  0
  4  8  1  0  0  0  0
  5  6  2  0  0  0  0
  5  7  1  0  0  0  0
  8  9  1  0  0  0  0
  8 10  2  0  0  0  0
 10 11  1  0  0  0  0
 11 12  1  0  0  0  0
 11 16  2  0  0  0  0
 12 13  1  0  0  0  0
 13 14  2  0  0  0  0
 14 15  1  0  0  0  0
 15 16  1  0  0  0  0
 15 17  2  0  0  0  0
 17 18  1  0  0  0  0
 18 19  1  0  0  0  0
 18 23  2  0  0  0  0
 21 22  1  0  0  0  0
 21 23  1  0  0  0  0
  1 24  1  0  0  0  0
  2 25  1  0  0  0  0
  6 26  1  0  0  0  0
  9 27  1  0  0  0  0
 12 28  1  0  0  0  0
 12 29  1  0  0  0  0
 13 30  1  0  0  0  0
 16 31  1  0  0  0  0
 19 32  1  0  0  0  0
 21 33  1  0  0  0  0
 21 34  1  0  0  0  0
 22 35  1  0  0  0  0
 22 36  1  0  0  0  0
 22 37  1  0  0  0  0
M  END
> <r_user_dG.exp>
-10.53

$$$$
ejm_54
  -OEChem-05192314073D
 Structure written by MMmdl.
 37 38  0     0  0  0  0  0  0999 V2000
   -1.9612   21.5502  -27.3300 C   0  0  0  0  0  0  0  0  0  0  0  0
   -1.2942   22.4120  -28.1957 C   0  0  0  0  0  0  0  0  0  0  0  0
   -1.9550   22.9520  -29.2938 C   0  0  0  0  0  0  0  0  0  0  0  0
   -3.2998   22.6223  -29.5426 C   0  0  0  0  0  0  0  0  0  0  0  0
   -3.9689   21.7588  -28.6534 C   0  0  0  0  0  0  0  0  0  0  0  0
   -3.2917   21.2292  -27.5624 C   0  0  0  0  0  0  0  0  0  0  0  0
   -5.6403   21.3533  -28.9190 Cl  0  0  0  0  0  0  0  0  0  0  0  0
   -4.0401   23.1522  -30.7110 C   0  0  0  0  0  0  0  0  0  0  0  0
   -4.2265   22.4198  -31.6685 O   0  0  0  0  0  0  0  0  0  0  0  0
   -4.5133   24.4119  -30.6476 N   0  0  0  0  0  0  0  0  0  0  0  0
   -5.2869   25.1112  -31.5800 C   0  0  0  0  0  0  0  0  0  0  0  0
   -5.9620   24.5479  -32.6807 C   0  0  0  0  0  0  0  0  0  0  0  0
   -6.7806   25.3609  -33.4589 C   0  0  0  0  0  0  0  0  0  0  0  0
   -6.9234   26.6542  -33.1828 N   0  0  0  0  0  0  0  0  0  0  0  0
   -6.2984   27.2317  -32.1577 C   0  0  0  0  0  0  0  0  0  0  0  0
   -5.5070   26.4571  -31.3066 C   0  0  0  0  0  0  0  0  0  0  0  0
   -6.5391   28.5828  -31.8838 N   0  0  0  0  0  0  0  0  0  0  0  0
   -5.7134   29.4445  -31.2331 C   0  0  0  0  0  0  0  0  0  0  0  0
   -4.6156   29.1218  -30.8098 O   0  0  0  0  0  0  0  0  0  0  0  0
   -1.1124   24.0506  -30.3318 Cl  0  0  0  0  0  0  0  0  0  0  0  0
   -5.1871   31.8542  -30.6778 C   0  0  0  0  0  0  0  0  0  0  0  0
   -3.9781   31.6716  -31.5468 C   0  0  0  0  0  0  0  0  0  0  0  0
   -6.1554   30.8245  -31.0242 N   0  0  0  0  0  0  0  0  0  0  0  0
   -1.4446   21.1319  -26.4788 H   0  0  0  0  0  0  0  0  0  0  0  0
   -0.2595   22.6624  -28.0140 H   0  0  0  0  0  0  0  0  0  0  0  0
   -3.8057   20.5606  -26.8877 H   0  0  0  0  0  0  0  0  0  0  0  0
   -4.7104   22.8895  -32.3376 H   0  0  0  0  0  0  0  0  0  0  0  0
   -5.8460   23.5005  -32.9171 H   0  0  0  0  0  0  0  0  0  0  0  0
   -7.3080   24.9353  -34.2998 H   0  0  0  0  0  0  0  0  0  0  0  0
   -5.9737   26.5047  -30.3117 H   0  0  0  0  0  0  0  0  0  0  0  0
   -4.5181   26.9376  -31.2711 H   0  0  0  0  0  0  0  0  0  0  0  0
   -4.2052   29.8690  -30.3905 H   0  0  0  0  0  0  0  0  0  0  0  0
   -4.9031   31.7575  -29.6195 H   0  0  0  0  0  0  0  0  0  0  0  0
   -5.6234   32.8490  -30.8509 H   0  0  0  0  0  0  0  0  0  0  0  0
   -3.2306   32.4407  -31.3023 H   0  0  0  0  0  0  0  0  0  0  0  0
   -3.5484   30.6742  -31.3721 H   0  0  0  0  0  0  0  0  0  0  0  0
   -4.2687   31.7657  -32.6035 H   0  0  0  0  0  0  0  0  0  0  0  0
  1  2  2  0  0  0  0
  1  6  1  0  0  0  0
  2  3  1  0  0  0  0
  3  4  2  0  0  0  0
  3 20  1  0  0  0  0
  4  5  1  0  0  0  0
  4  8  1  0  0  0  0
  5  6  2  0  0  0  0
  5  7  1  0  0  0  0
  8  9  1  0  0  0  0
  8 10  2  0  0  0  0
 10 11  1  0  0  0  0
 11 12  2  0  0  0  0
 11 16  1  0  0  0  0
 12 13  1  0  0  0  0
 13 14  2  0  0  0  0
 14 15  1  0  0  0  0
 15 16  1  0  0  0  0
 15 17  2  0  0  0  0
 17 18  1  0  0  0  0
 18 19  1  0  0  0  0
 18 23  2  0  0  0  0
 21 22  1  0  0  0  0
 21 23  1  0  0  0  0
  1 24  1  0  0  0  0
  2 25  1  0  0  0  0
  6 26  1  0  0  0  0
  9 27  1  0  0  0  0
 12 28  1  0  0  0  0
 13 29  1  0  0  0  0
 16 30  1  0  0  0  0
 16 31  1  0  0  0  0
 19 32  1  0  0  0  0
 21 33  1  0  0  0  0
 21 34  1  0  0  0  0
 22 35  1  0  0  0  0
 22 36  1  0  0  0  0
 22 37  1  0  0  0  0
M  END
> <r_user_dG.exp>
-10.53

$$$$
